# generated using pymatgen
data_Y(TiGa2)2
_symmetry_space_group_name_H-M   'P 1'
_cell_length_a   5.47809335
_cell_length_b   5.47809477
_cell_length_c   5.47809319
_cell_angle_alpha   104.23851743
_cell_angle_beta   104.23851485
_cell_angle_gamma   120.53615312
_symmetry_Int_Tables_number   1
_chemical_formula_structural   Y(TiGa2)2
_chemical_formula_sum   'Y1 Ti2 Ga4'
_cell_volume   122.95458046
_cell_formula_units_Z   1
loop_
 _symmetry_equiv_pos_site_id
 _symmetry_equiv_pos_as_xyz
  1  'x, y, z'
loop_
 _atom_site_type_symbol
 _atom_site_label
 _atom_site_symmetry_multiplicity
 _atom_site_fract_x
 _atom_site_fract_y
 _atom_site_fract_z
 _atom_site_occupancy
  Y  Y0  1  -0.00000000  0.00000000  0.00000000  1
  Ti  Ti1  1  0.75000000  0.25000000  0.50000000  1
  Ti  Ti2  1  0.25000000  0.75000000  0.50000000  1
  Ga  Ga3  1  0.69651133  0.30348867  0.00000000  1
  Ga  Ga4  1  0.69651133  0.69651133  0.39302267  1
  Ga  Ga5  1  0.30348867  0.30348867  0.60697733  1
  Ga  Ga6  1  0.30348867  0.69651133  1.00000000  1
