# generated using pymatgen
data_Si
_symmetry_space_group_name_H-M   'P 1'
_cell_length_a   3.83132107
_cell_length_b   3.83131386
_cell_length_c   6.33262200
_cell_angle_alpha   90.00070882
_cell_angle_beta   89.99931893
_cell_angle_gamma   119.99994035
_symmetry_Int_Tables_number   1
_chemical_formula_structural   Si
_chemical_formula_sum   Si4
_cell_volume   80.50275362
_cell_formula_units_Z   4
loop_
 _symmetry_equiv_pos_site_id
 _symmetry_equiv_pos_as_xyz
  1  'x, y, z'
loop_
 _atom_site_type_symbol
 _atom_site_label
 _atom_site_symmetry_multiplicity
 _atom_site_fract_x
 _atom_site_fract_y
 _atom_site_fract_z
 _atom_site_occupancy
  Si  Si0  1  0.66668300  0.33331700  0.50001200  1
  Si  Si1  1  0.00001500  0.99998500  0.00000900  1
  Si  Si2  1  0.66668300  0.33331800  0.87399300  1
  Si  Si3  1  0.00002000  0.99998100  0.37398600  1
