# generated using pymatgen
data_ZnNiSb
_symmetry_space_group_name_H-M   'P 1'
_cell_length_a   4.16202995
_cell_length_b   4.16203120
_cell_length_c   4.16203058
_cell_angle_alpha   60.00000489
_cell_angle_beta   59.99999502
_cell_angle_gamma   60.00000197
_symmetry_Int_Tables_number   1
_chemical_formula_structural   ZnNiSb
_chemical_formula_sum   'Zn1 Ni1 Sb1'
_cell_volume   50.98011463
_cell_formula_units_Z   1
loop_
 _symmetry_equiv_pos_site_id
 _symmetry_equiv_pos_as_xyz
  1  'x, y, z'
loop_
 _atom_site_type_symbol
 _atom_site_label
 _atom_site_symmetry_multiplicity
 _atom_site_fract_x
 _atom_site_fract_y
 _atom_site_fract_z
 _atom_site_occupancy
  Zn  Zn0  1  0.25000000  0.25000000  0.25000000  1
  Ni  Ni1  1  0.00000000  0.00000000  -0.00000000  1
  Sb  Sb2  1  0.75000000  0.75000000  0.75000000  1
