# generated using pymatgen
data_YSiRh
_symmetry_space_group_name_H-M   'P 1'
_cell_length_a   4.23205805
_cell_length_b   6.89393769
_cell_length_c   7.40422333
_cell_angle_alpha   90.00000000
_cell_angle_beta   90.00000000
_cell_angle_gamma   90.00000000
_symmetry_Int_Tables_number   1
_chemical_formula_structural   YSiRh
_chemical_formula_sum   'Y4 Si4 Rh4'
_cell_volume   216.02224723
_cell_formula_units_Z   4
loop_
 _symmetry_equiv_pos_site_id
 _symmetry_equiv_pos_as_xyz
  1  'x, y, z'
loop_
 _atom_site_type_symbol
 _atom_site_label
 _atom_site_symmetry_multiplicity
 _atom_site_fract_x
 _atom_site_fract_y
 _atom_site_fract_z
 _atom_site_occupancy
  Y  Y0  1  0.75000000  0.50046225  0.68999643  1
  Y  Y1  1  0.25000000  0.99953775  0.18999643  1
  Y  Y2  1  0.75000000  0.00046225  0.81000357  1
  Y  Y3  1  0.25000000  0.49953775  0.31000357  1
  Si  Si4  1  0.25000000  0.29768554  0.89647703  1
  Si  Si5  1  0.25000000  0.79768554  0.60352297  1
  Si  Si6  1  0.75000000  0.70231446  0.10352297  1
  Si  Si7  1  0.75000000  0.20231446  0.39647703  1
  Rh  Rh8  1  0.25000000  0.65234263  0.93188992  1
  Rh  Rh9  1  0.25000000  0.15234263  0.56811008  1
  Rh  Rh10  1  0.75000000  0.84765737  0.43188992  1
  Rh  Rh11  1  0.75000000  0.34765737  0.06811008  1
