# generated using pymatgen
data_NaZnAs
_symmetry_space_group_name_H-M   'P 1'
_cell_length_a   4.14144251
_cell_length_b   4.14144251
_cell_length_c   7.03559276
_cell_angle_alpha   90.00000000
_cell_angle_beta   90.00000000
_cell_angle_gamma   90.00000000
_symmetry_Int_Tables_number   1
_chemical_formula_structural   NaZnAs
_chemical_formula_sum   'Na2 Zn2 As2'
_cell_volume   120.67129331
_cell_formula_units_Z   2
loop_
 _symmetry_equiv_pos_site_id
 _symmetry_equiv_pos_as_xyz
  1  'x, y, z'
loop_
 _atom_site_type_symbol
 _atom_site_label
 _atom_site_symmetry_multiplicity
 _atom_site_fract_x
 _atom_site_fract_y
 _atom_site_fract_z
 _atom_site_occupancy
  Na  Na0  1  0.75000000  0.75000000  0.65049662  1
  Na  Na1  1  0.25000000  0.25000000  0.34950338  1
  Zn  Zn2  1  0.25000000  0.75000000  -0.00000000  1
  Zn  Zn3  1  0.75000000  0.25000000  0.00000000  1
  As  As4  1  0.25000000  0.25000000  0.78180696  1
  As  As5  1  0.75000000  0.75000000  0.21819304  1
