# generated using pymatgen
data_TiCrP
_symmetry_space_group_name_H-M   'P 1'
_cell_length_a   6.37725356
_cell_length_b   6.37719397
_cell_length_c   3.23161530
_cell_angle_alpha   90.00000000
_cell_angle_beta   90.00000000
_cell_angle_gamma   120.00070062
_symmetry_Int_Tables_number   1
_chemical_formula_structural   TiCrP
_chemical_formula_sum   'Ti3 Cr3 P3'
_cell_volume   113.81789076
_cell_formula_units_Z   3
loop_
 _symmetry_equiv_pos_site_id
 _symmetry_equiv_pos_as_xyz
  1  'x, y, z'
loop_
 _atom_site_type_symbol
 _atom_site_label
 _atom_site_symmetry_multiplicity
 _atom_site_fract_x
 _atom_site_fract_y
 _atom_site_fract_z
 _atom_site_occupancy
  Ti  Ti0  1  0.40439325  0.40438135  0.50000000  1
  Ti  Ti1  1  0.59559221  -0.00000330  0.50000000  1
  Ti  Ti2  1  0.00000846  0.59562576  0.50000000  1
  Cr  Cr3  1  0.00000033  0.25402773  -0.00000000  1
  Cr  Cr4  1  0.25403279  -0.00000487  -0.00000000  1
  Cr  Cr5  1  0.74597497  0.74596964  -0.00000000  1
  P  P6  1  0.66665431  0.33332769  -0.00000000  1
  P  P7  1  0.33333468  0.66667850  -0.00000000  1
  P  P8  1  0.00000899  -0.00000350  0.50000000  1
