# generated using pymatgen
data_V3S4
_symmetry_space_group_name_H-M   'P 1'
_cell_length_a   3.26585437
_cell_length_b   5.84651288
_cell_length_c   6.54475510
_cell_angle_alpha   114.44489980
_cell_angle_beta   104.44801602
_cell_angle_gamma   90.00001189
_symmetry_Int_Tables_number   1
_chemical_formula_structural   V3S4
_chemical_formula_sum   'V3 S4'
_cell_volume   109.40678090
_cell_formula_units_Z   1
loop_
 _symmetry_equiv_pos_site_id
 _symmetry_equiv_pos_as_xyz
  1  'x, y, z'
loop_
 _atom_site_type_symbol
 _atom_site_label
 _atom_site_symmetry_multiplicity
 _atom_site_fract_x
 _atom_site_fract_y
 _atom_site_fract_z
 _atom_site_occupancy
  V  V0  1  -0.00000000  0.00000000  0.00000000  1
  V  V1  1  0.25770103  0.31958656  0.51540406  1
  V  V2  1  0.74229897  0.68041344  0.48459594  1
  S  S3  1  0.35871117  0.01639354  0.71742134  1
  S  S4  1  0.64128883  0.98360646  0.28257866  1
  S  S5  1  0.88891657  0.54812258  0.77783213  1
  S  S6  1  0.11108343  0.45187742  0.22216787  1
