# generated using pymatgen
data_YAsPt
_symmetry_space_group_name_H-M   'P 1'
_cell_length_a   4.26372849
_cell_length_b   4.26372873
_cell_length_c   15.42569775
_cell_angle_alpha   90.00000000
_cell_angle_beta   90.00000000
_cell_angle_gamma   119.99999804
_symmetry_Int_Tables_number   1
_chemical_formula_structural   YAsPt
_chemical_formula_sum   'Y4 As4 Pt4'
_cell_volume   242.85920300
_cell_formula_units_Z   4
loop_
 _symmetry_equiv_pos_site_id
 _symmetry_equiv_pos_as_xyz
  1  'x, y, z'
loop_
 _atom_site_type_symbol
 _atom_site_label
 _atom_site_symmetry_multiplicity
 _atom_site_fract_x
 _atom_site_fract_y
 _atom_site_fract_z
 _atom_site_occupancy
  Y  Y0  1  -0.00000000  -0.00000000  -0.00000000  1
  Y  Y1  1  -0.00000000  -0.00000000  0.50000000  1
  Y  Y2  1  -0.00000000  -0.00000000  0.25000000  1
  Y  Y3  1  0.00000000  -0.00000000  0.75000000  1
  As  As4  1  0.33333300  0.66666700  0.88317226  1
  As  As5  1  0.66666700  0.33333300  0.38317226  1
  As  As6  1  0.66666700  0.33333300  0.11682774  1
  As  As7  1  0.33333300  0.66666700  0.61682774  1
  Pt  Pt8  1  0.33333300  0.66666700  0.36532131  1
  Pt  Pt9  1  0.66666700  0.33333300  0.86532131  1
  Pt  Pt10  1  0.66666700  0.33333300  0.63467869  1
  Pt  Pt11  1  0.33333300  0.66666700  0.13467869  1
