# generated using pymatgen
data_ScPRu
_symmetry_space_group_name_H-M   'P 1'
_cell_length_a   6.54353532
_cell_length_b   6.54353582
_cell_length_c   3.62777384
_cell_angle_alpha   90.00000000
_cell_angle_beta   90.00000000
_cell_angle_gamma   119.99999749
_symmetry_Int_Tables_number   1
_chemical_formula_structural   ScPRu
_chemical_formula_sum   'Sc3 P3 Ru3'
_cell_volume   134.52276405
_cell_formula_units_Z   3
loop_
 _symmetry_equiv_pos_site_id
 _symmetry_equiv_pos_as_xyz
  1  'x, y, z'
loop_
 _atom_site_type_symbol
 _atom_site_label
 _atom_site_symmetry_multiplicity
 _atom_site_fract_x
 _atom_site_fract_y
 _atom_site_fract_z
 _atom_site_occupancy
  Sc  Sc0  1  0.41054246  0.41054246  0.50000000  1
  Sc  Sc1  1  0.58945754  0.00000000  0.50000000  1
  Sc  Sc2  1  0.00000000  0.58945754  0.50000000  1
  P  P3  1  0.66666700  0.33333300  -0.00000000  1
  P  P4  1  0.33333300  0.66666700  -0.00000000  1
  P  P5  1  -0.00000000  0.00000000  0.50000000  1
  Ru  Ru6  1  -0.00000000  0.24343889  0.00000000  1
  Ru  Ru7  1  0.24343889  0.00000000  -0.00000000  1
  Ru  Ru8  1  0.75656111  0.75656111  0.00000000  1
