# generated using pymatgen
data_VNi3
_symmetry_space_group_name_H-M   'P 1'
_cell_length_a   3.48958609
_cell_length_b   3.48958493
_cell_length_c   4.33507915
_cell_angle_alpha   113.73356404
_cell_angle_beta   113.73344804
_cell_angle_gamma   89.99998583
_symmetry_Int_Tables_number   1
_chemical_formula_structural   VNi3
_chemical_formula_sum   'V1 Ni3'
_cell_volume   43.40330284
_cell_formula_units_Z   1
loop_
 _symmetry_equiv_pos_site_id
 _symmetry_equiv_pos_as_xyz
  1  'x, y, z'
loop_
 _atom_site_type_symbol
 _atom_site_label
 _atom_site_symmetry_multiplicity
 _atom_site_fract_x
 _atom_site_fract_y
 _atom_site_fract_z
 _atom_site_occupancy
  V  V0  1  0.00000000  -0.00000000  0.00000000  1
  Ni  Ni1  1  0.25000000  0.75000100  0.50000000  1
  Ni  Ni2  1  0.75000000  0.24999900  0.50000000  1
  Ni  Ni3  1  0.50000000  0.50000000  0.00000000  1
