# generated using pymatgen
data_NbAu2
_symmetry_space_group_name_H-M   'P 1'
_cell_length_a   4.67646908
_cell_length_b   4.67646831
_cell_length_c   2.74309831
_cell_angle_alpha   90.00000000
_cell_angle_beta   90.00000000
_cell_angle_gamma   120.00000547
_symmetry_Int_Tables_number   1
_chemical_formula_structural   NbAu2
_chemical_formula_sum   'Nb1 Au2'
_cell_volume   51.95269043
_cell_formula_units_Z   1
loop_
 _symmetry_equiv_pos_site_id
 _symmetry_equiv_pos_as_xyz
  1  'x, y, z'
loop_
 _atom_site_type_symbol
 _atom_site_label
 _atom_site_symmetry_multiplicity
 _atom_site_fract_x
 _atom_site_fract_y
 _atom_site_fract_z
 _atom_site_occupancy
  Nb  Nb0  1  -0.00000000  0.00000000  0.00000000  1
  Au  Au1  1  0.66666700  0.33333300  0.50000000  1
  Au  Au2  1  0.33333300  0.66666700  0.50000000  1
