# generated using pymatgen
data_ScGa2
_symmetry_space_group_name_H-M   'P 1'
_cell_length_a   4.08505321
_cell_length_b   4.11470088
_cell_length_c   6.64762999
_cell_angle_alpha   89.99999891
_cell_angle_beta   108.06167922
_cell_angle_gamma   90.00000194
_symmetry_Int_Tables_number   1
_chemical_formula_structural   ScGa2
_chemical_formula_sum   'Sc2 Ga4'
_cell_volume   106.23239351
_cell_formula_units_Z   2
loop_
 _symmetry_equiv_pos_site_id
 _symmetry_equiv_pos_as_xyz
  1  'x, y, z'
loop_
 _atom_site_type_symbol
 _atom_site_label
 _atom_site_symmetry_multiplicity
 _atom_site_fract_x
 _atom_site_fract_y
 _atom_site_fract_z
 _atom_site_occupancy
  Sc  Sc0  1  0.34706556  0.00000001  0.69421515  1
  Sc  Sc1  1  0.65293444  1.00000000  0.30578485  1
  Ga  Ga2  1  0.82317516  0.50000000  0.64644419  1
  Ga  Ga3  1  0.17682484  0.50000000  0.35355581  1
  Ga  Ga4  1  0.50000000  0.50000000  1.00000000  1
  Ga  Ga5  1  1.00000000  -0.00000000  1.00000000  1
