# generated using pymatgen
data_Rb2HfF6
_symmetry_space_group_name_H-M   'P 1'
_cell_length_a   6.07005356
_cell_length_b   6.07005416
_cell_length_c   4.76819267
_cell_angle_alpha   90.00000000
_cell_angle_beta   90.00000000
_cell_angle_gamma   120.00000218
_symmetry_Int_Tables_number   1
_chemical_formula_structural   Rb2HfF6
_chemical_formula_sum   'Rb2 Hf1 F6'
_cell_volume   152.14914185
_cell_formula_units_Z   1
loop_
 _symmetry_equiv_pos_site_id
 _symmetry_equiv_pos_as_xyz
  1  'x, y, z'
loop_
 _atom_site_type_symbol
 _atom_site_label
 _atom_site_symmetry_multiplicity
 _atom_site_fract_x
 _atom_site_fract_y
 _atom_site_fract_z
 _atom_site_occupancy
  Rb  Rb0  1  0.33333300  0.66666700  0.69402086  1
  Rb  Rb1  1  0.66666700  0.33333300  0.30597914  1
  Hf  Hf2  1  0.00000000  0.00000000  0.00000000  1
  F  F3  1  0.84161163  0.15838837  0.77037719  1
  F  F4  1  0.84161163  0.68322226  0.77037719  1
  F  F5  1  0.31677774  0.15838837  0.77037719  1
  F  F6  1  0.15838837  0.84161163  0.22962181  1
  F  F7  1  0.15838837  0.31677774  0.22962181  1
  F  F8  1  0.68322226  0.84161163  0.22962181  1
