# generated using pymatgen
data_HfRe2
_symmetry_space_group_name_H-M   'P 1'
_cell_length_a   5.25547154
_cell_length_b   5.25547271
_cell_length_c   8.60303494
_cell_angle_alpha   90.00000000
_cell_angle_beta   90.00000000
_cell_angle_gamma   120.00000546
_symmetry_Int_Tables_number   1
_chemical_formula_structural   HfRe2
_chemical_formula_sum   'Hf4 Re8'
_cell_volume   205.78123455
_cell_formula_units_Z   4
loop_
 _symmetry_equiv_pos_site_id
 _symmetry_equiv_pos_as_xyz
  1  'x, y, z'
loop_
 _atom_site_type_symbol
 _atom_site_label
 _atom_site_symmetry_multiplicity
 _atom_site_fract_x
 _atom_site_fract_y
 _atom_site_fract_z
 _atom_site_occupancy
  Hf  Hf0  1  0.33333300  0.66666700  0.06169752  1
  Hf  Hf1  1  0.66666700  0.33333300  0.56169752  1
  Hf  Hf2  1  0.66666700  0.33333300  0.93830248  1
  Hf  Hf3  1  0.33333300  0.66666700  0.43830248  1
  Re  Re4  1  0.00000000  0.00000000  -0.00000000  1
  Re  Re5  1  0.00000000  0.00000000  0.50000000  1
  Re  Re6  1  0.82794232  0.65588564  0.25000000  1
  Re  Re7  1  0.17205768  0.82794232  0.75000000  1
  Re  Re8  1  0.65588564  0.82794232  0.75000000  1
  Re  Re9  1  0.34411436  0.17205768  0.25000000  1
  Re  Re10  1  0.82794232  0.17205768  0.25000000  1
  Re  Re11  1  0.17205768  0.34411436  0.75000000  1
