# generated using pymatgen
data_As
_symmetry_space_group_name_H-M   'P 1'
_cell_length_a   4.29204665
_cell_length_b   4.29204706
_cell_length_c   4.29204559
_cell_angle_alpha   51.87829271
_cell_angle_beta   51.87830420
_cell_angle_gamma   51.87829137
_symmetry_Int_Tables_number   1
_chemical_formula_structural   As
_chemical_formula_sum   As2
_cell_volume   45.22928128
_cell_formula_units_Z   2
loop_
 _symmetry_equiv_pos_site_id
 _symmetry_equiv_pos_as_xyz
  1  'x, y, z'
loop_
 _atom_site_type_symbol
 _atom_site_label
 _atom_site_symmetry_multiplicity
 _atom_site_fract_x
 _atom_site_fract_y
 _atom_site_fract_z
 _atom_site_occupancy
  As  As0  1  0.22443359  0.22443359  0.22443359  1
  As  As1  1  0.77556641  0.77556641  0.77556641  1
