# generated using pymatgen
data_TaNi2
_symmetry_space_group_name_H-M   'P 1'
_cell_length_a   3.14716957
_cell_length_b   3.14716861
_cell_length_c   4.50134202
_cell_angle_alpha   110.46169014
_cell_angle_beta   110.46170508
_cell_angle_gamma   90.00002311
_symmetry_Int_Tables_number   1
_chemical_formula_structural   TaNi2
_chemical_formula_sum   'Ta1 Ni2'
_cell_volume   38.75467578
_cell_formula_units_Z   1
loop_
 _symmetry_equiv_pos_site_id
 _symmetry_equiv_pos_as_xyz
  1  'x, y, z'
loop_
 _atom_site_type_symbol
 _atom_site_label
 _atom_site_symmetry_multiplicity
 _atom_site_fract_x
 _atom_site_fract_y
 _atom_site_fract_z
 _atom_site_occupancy
  Ta  Ta0  1  0.00000000  0.00000000  0.00000000  1
  Ni  Ni1  1  0.33349657  0.33349657  0.66699214  1
  Ni  Ni2  1  0.66650343  0.66650343  0.33300786  1
