# generated using pymatgen
data_BaCoO2
_symmetry_space_group_name_H-M   'P 1'
_cell_length_a   5.87493798
_cell_length_b   5.87490532
_cell_length_c   6.77497897
_cell_angle_alpha   89.99860008
_cell_angle_beta   90.00101727
_cell_angle_gamma   119.99925163
_symmetry_Int_Tables_number   1
_chemical_formula_structural   BaCoO2
_chemical_formula_sum   'Ba3 Co3 O6'
_cell_volume   202.50978673
_cell_formula_units_Z   3
loop_
 _symmetry_equiv_pos_site_id
 _symmetry_equiv_pos_as_xyz
  1  'x, y, z'
loop_
 _atom_site_type_symbol
 _atom_site_label
 _atom_site_symmetry_multiplicity
 _atom_site_fract_x
 _atom_site_fract_y
 _atom_site_fract_z
 _atom_site_occupancy
  Ba  Ba0  1  0.65375574  0.00001238  0.83332609  1
  Ba  Ba1  1  0.00000774  0.65374451  0.16664624  1
  Ba  Ba2  1  0.34626103  0.34626023  0.50000036  1
  Co  Co3  1  0.58779595  0.00002285  0.33334404  1
  Co  Co4  1  -0.00000191  0.58777110  0.66665033  1
  Co  Co5  1  0.41223696  0.41222898  -0.00000017  1
  O  O6  1  0.13215598  0.43233594  0.87008298  1
  O  O7  1  0.56764609  0.69976539  0.20345007  1
  O  O8  1  0.30018853  0.86785317  0.53676876  1
  O  O9  1  0.69974988  0.56759967  0.79657827  1
  O  O10  1  0.86783284  0.30024259  0.46323581  1
  O  O11  1  0.43237219  0.13216521  0.12991422  1
