# generated using pymatgen
data_SrZn2
_symmetry_space_group_name_H-M   'P 1'
_cell_length_a   5.89136292
_cell_length_b   5.89136198
_cell_length_c   8.90298103
_cell_angle_alpha   90.00000000
_cell_angle_beta   90.00000000
_cell_angle_gamma   119.99999352
_symmetry_Int_Tables_number   1
_chemical_formula_structural   SrZn2
_chemical_formula_sum   'Sr4 Zn8'
_cell_volume   267.60707595
_cell_formula_units_Z   4
loop_
 _symmetry_equiv_pos_site_id
 _symmetry_equiv_pos_as_xyz
  1  'x, y, z'
loop_
 _atom_site_type_symbol
 _atom_site_label
 _atom_site_symmetry_multiplicity
 _atom_site_fract_x
 _atom_site_fract_y
 _atom_site_fract_z
 _atom_site_occupancy
  Sr  Sr0  1  0.33333300  0.66666700  0.44874304  1
  Sr  Sr1  1  0.66666700  0.33333300  0.94874304  1
  Sr  Sr2  1  0.66666700  0.33333300  0.55125696  1
  Sr  Sr3  1  0.33333300  0.66666700  0.05125696  1
  Zn  Zn4  1  0.15270805  0.30541809  0.75000000  1
  Zn  Zn5  1  0.84729195  0.15270805  0.25000000  1
  Zn  Zn6  1  0.30541809  0.15270805  0.25000000  1
  Zn  Zn7  1  0.69458191  0.84729195  0.75000000  1
  Zn  Zn8  1  0.00000000  0.00000000  -0.00000000  1
  Zn  Zn9  1  0.00000000  0.00000000  0.50000000  1
  Zn  Zn10  1  0.84729195  0.69458191  0.25000000  1
  Zn  Zn11  1  0.15270805  0.84729195  0.75000000  1
