# generated using pymatgen
data_Sr2FeO4
_symmetry_space_group_name_H-M   'P 1'
_cell_length_a   3.83969649
_cell_length_b   3.83969404
_cell_length_c   6.76002610
_cell_angle_alpha   106.49909484
_cell_angle_beta   106.49911334
_cell_angle_gamma   89.99998258
_symmetry_Int_Tables_number   1
_chemical_formula_structural   Sr2FeO4
_chemical_formula_sum   'Sr2 Fe1 O4'
_cell_volume   91.27293440
_cell_formula_units_Z   1
loop_
 _symmetry_equiv_pos_site_id
 _symmetry_equiv_pos_as_xyz
  1  'x, y, z'
loop_
 _atom_site_type_symbol
 _atom_site_label
 _atom_site_symmetry_multiplicity
 _atom_site_fract_x
 _atom_site_fract_y
 _atom_site_fract_z
 _atom_site_occupancy
  Sr  Sr0  1  0.64234867  0.64234767  0.28469534  1
  Sr  Sr1  1  0.35765133  0.35765233  0.71530366  1
  Fe  Fe2  1  0.00000000  0.00000000  0.00000000  1
  O  O3  1  0.84459040  0.84458940  0.68918081  1
  O  O4  1  0.15540960  0.15540760  0.31081719  1
  O  O5  1  0.00000000  0.50000000  0.00000000  1
  O  O6  1  0.50000000  0.00000000  0.00000100  1
