# generated using pymatgen
data_NbPt2
_symmetry_space_group_name_H-M   'P 1'
_cell_length_a   2.81094514
_cell_length_b   3.99371625
_cell_length_c   4.91470352
_cell_angle_alpha   113.97278257
_cell_angle_beta   106.61701717
_cell_angle_gamma   89.99999731
_symmetry_Int_Tables_number   1
_chemical_formula_structural   NbPt2
_chemical_formula_sum   'Nb1 Pt2'
_cell_volume   47.88109506
_cell_formula_units_Z   1
loop_
 _symmetry_equiv_pos_site_id
 _symmetry_equiv_pos_as_xyz
  1  'x, y, z'
loop_
 _atom_site_type_symbol
 _atom_site_label
 _atom_site_symmetry_multiplicity
 _atom_site_fract_x
 _atom_site_fract_y
 _atom_site_fract_z
 _atom_site_occupancy
  Nb  Nb0  1  -0.00000000  -0.00000000  -0.00000000  1
  Pt  Pt1  1  0.33517729  0.33517729  0.67035359  1
  Pt  Pt2  1  0.66482271  0.66482271  0.32964641  1
