# generated using pymatgen
data_Zr3O
_symmetry_space_group_name_H-M   'P 1'
_cell_length_a   6.13491451
_cell_length_b   6.13491533
_cell_length_c   6.13491436
_cell_angle_alpha   54.88477413
_cell_angle_beta   54.88476300
_cell_angle_gamma   54.88476707
_symmetry_Int_Tables_number   1
_chemical_formula_structural   Zr3O
_chemical_formula_sum   'Zr6 O2'
_cell_volume   143.83052779
_cell_formula_units_Z   2
loop_
 _symmetry_equiv_pos_site_id
 _symmetry_equiv_pos_as_xyz
  1  'x, y, z'
loop_
 _atom_site_type_symbol
 _atom_site_label
 _atom_site_symmetry_multiplicity
 _atom_site_fract_x
 _atom_site_fract_y
 _atom_site_fract_z
 _atom_site_occupancy
  Zr  Zr0  1  0.59151433  0.90848567  0.25000000  1
  Zr  Zr1  1  0.25000000  0.59151433  0.90848567  1
  Zr  Zr2  1  0.90848567  0.25000000  0.59151433  1
  Zr  Zr3  1  0.40848567  0.09151433  0.75000000  1
  Zr  Zr4  1  0.75000000  0.40848567  0.09151433  1
  Zr  Zr5  1  0.09151433  0.75000000  0.40848567  1
  O  O6  1  -0.00000000  -0.00000000  0.00000000  1
  O  O7  1  0.50000000  0.50000000  0.50000000  1
