# generated using pymatgen
data_YCuSn
_symmetry_space_group_name_H-M   'P 1'
_cell_length_a   4.51338990
_cell_length_b   4.51338990
_cell_length_c   7.32044930
_cell_angle_alpha   90.00000000
_cell_angle_beta   90.00000000
_cell_angle_gamma   119.99999943
_symmetry_Int_Tables_number   1
_chemical_formula_structural   YCuSn
_chemical_formula_sum   'Y2 Cu2 Sn2'
_cell_volume   129.14395336
_cell_formula_units_Z   2
loop_
 _symmetry_equiv_pos_site_id
 _symmetry_equiv_pos_as_xyz
  1  'x, y, z'
loop_
 _atom_site_type_symbol
 _atom_site_label
 _atom_site_symmetry_multiplicity
 _atom_site_fract_x
 _atom_site_fract_y
 _atom_site_fract_z
 _atom_site_occupancy
  Y  Y0  1  0.00000000  0.00000000  0.99893786  1
  Y  Y1  1  0.00000000  0.00000000  0.49893786  1
  Cu  Cu2  1  0.66666700  0.33333300  0.32143992  1
  Cu  Cu3  1  0.33333300  0.66666700  0.82143992  1
  Sn  Sn4  1  0.33333300  0.66666700  0.22922222  1
  Sn  Sn5  1  0.66666700  0.33333300  0.72922222  1
