# generated using pymatgen
data_VAs
_symmetry_space_group_name_H-M   'P 1'
_cell_length_a   3.36170611
_cell_length_b   5.84327368
_cell_length_c   6.18831163
_cell_angle_alpha   90.00000000
_cell_angle_beta   90.00000000
_cell_angle_gamma   90.00000000
_symmetry_Int_Tables_number   1
_chemical_formula_structural   VAs
_chemical_formula_sum   'V4 As4'
_cell_volume   121.55928780
_cell_formula_units_Z   4
loop_
 _symmetry_equiv_pos_site_id
 _symmetry_equiv_pos_as_xyz
  1  'x, y, z'
loop_
 _atom_site_type_symbol
 _atom_site_label
 _atom_site_symmetry_multiplicity
 _atom_site_fract_x
 _atom_site_fract_y
 _atom_site_fract_z
 _atom_site_occupancy
  V  V0  1  0.25865100  0.00535412  0.18110409  1
  V  V1  1  0.75865100  0.99464588  0.81889591  1
  V  V2  1  0.75865100  0.49464588  0.68110409  1
  V  V3  1  0.25865100  0.50535412  0.31889591  1
  As  As4  1  0.25864900  0.19404520  0.57703788  1
  As  As5  1  0.75864900  0.80595480  0.42296212  1
  As  As6  1  0.75864900  0.30595480  0.07703788  1
  As  As7  1  0.25864900  0.69404520  0.92296212  1
