# generated using pymatgen
data_MnAu4
_symmetry_space_group_name_H-M   'P 1'
_cell_length_a   4.00211736
_cell_length_b   5.03359048
_cell_length_c   5.03185636
_cell_angle_alpha   80.94920275
_cell_angle_beta   66.56689943
_cell_angle_gamma   66.57544167
_symmetry_Int_Tables_number   1
_chemical_formula_structural   MnAu4
_chemical_formula_sum   'Mn1 Au4'
_cell_volume   85.34137780
_cell_formula_units_Z   1
loop_
 _symmetry_equiv_pos_site_id
 _symmetry_equiv_pos_as_xyz
  1  'x, y, z'
loop_
 _atom_site_type_symbol
 _atom_site_label
 _atom_site_symmetry_multiplicity
 _atom_site_fract_x
 _atom_site_fract_y
 _atom_site_fract_z
 _atom_site_occupancy
  Mn  Mn0  1  0.00000000  -0.00000000  -0.00000000  1
  Au  Au1  1  0.20461174  0.19384330  0.39693323  1
  Au  Au2  1  0.60146860  0.60315080  0.19391000  1
  Au  Au3  1  0.39853140  0.39684920  0.80609000  1
  Au  Au4  1  0.79538826  0.80615670  0.60306677  1
