# generated using pymatgen
data_Ni3Mo
_symmetry_space_group_name_H-M   'P 1'
_cell_length_a   4.20168179
_cell_length_b   4.42774148
_cell_length_c   4.97046978
_cell_angle_alpha   90.00000000
_cell_angle_beta   90.00000000
_cell_angle_gamma   90.00000000
_symmetry_Int_Tables_number   1
_chemical_formula_structural   Ni3Mo
_chemical_formula_sum   'Ni6 Mo2'
_cell_volume   92.47042468
_cell_formula_units_Z   2
loop_
 _symmetry_equiv_pos_site_id
 _symmetry_equiv_pos_as_xyz
  1  'x, y, z'
loop_
 _atom_site_type_symbol
 _atom_site_label
 _atom_site_symmetry_multiplicity
 _atom_site_fract_x
 _atom_site_fract_y
 _atom_site_fract_z
 _atom_site_occupancy
  Ni  Ni0  1  0.75000000  0.84067319  0.00147354  1
  Ni  Ni1  1  0.25000000  0.15932681  0.99852646  1
  Ni  Ni2  1  0.75000000  0.33370827  0.25000000  1
  Ni  Ni3  1  0.25000000  0.66629173  0.75000000  1
  Ni  Ni4  1  0.25000000  0.15932681  0.50147354  1
  Ni  Ni5  1  0.75000000  0.84067319  0.49852646  1
  Mo  Mo6  1  0.75000000  0.34555782  0.75000000  1
  Mo  Mo7  1  0.25000000  0.65444218  0.25000000  1
