# generated using pymatgen
data_NiSb2
_symmetry_space_group_name_H-M   'P 1'
_cell_length_a   3.81377436
_cell_length_b   5.27077808
_cell_length_c   6.29966109
_cell_angle_alpha   90.00000000
_cell_angle_beta   90.00000000
_cell_angle_gamma   90.00000000
_symmetry_Int_Tables_number   1
_chemical_formula_structural   NiSb2
_chemical_formula_sum   'Ni2 Sb4'
_cell_volume   126.63300466
_cell_formula_units_Z   2
loop_
 _symmetry_equiv_pos_site_id
 _symmetry_equiv_pos_as_xyz
  1  'x, y, z'
loop_
 _atom_site_type_symbol
 _atom_site_label
 _atom_site_symmetry_multiplicity
 _atom_site_fract_x
 _atom_site_fract_y
 _atom_site_fract_z
 _atom_site_occupancy
  Ni  Ni0  1  -0.00000000  -0.00000000  -0.00000000  1
  Ni  Ni1  1  0.50000000  0.50000000  0.50000000  1
  Sb  Sb2  1  0.00000000  0.21630021  0.35991643  1
  Sb  Sb3  1  0.00000000  0.78369979  0.64008357  1
  Sb  Sb4  1  0.50000000  0.71630021  0.14008357  1
  Sb  Sb5  1  0.50000000  0.28369979  0.85991643  1
