# generated using pymatgen
data_Co2B4Mo
_symmetry_space_group_name_H-M   'P 1'
_cell_length_a   3.01454897
_cell_length_b   3.04282201
_cell_length_c   6.55034990
_cell_angle_alpha   103.43039516
_cell_angle_beta   103.30331742
_cell_angle_gamma   89.99998107
_symmetry_Int_Tables_number   1
_chemical_formula_structural   Co2B4Mo
_chemical_formula_sum   'Co2 B4 Mo1'
_cell_volume   56.78250890
_cell_formula_units_Z   1
loop_
 _symmetry_equiv_pos_site_id
 _symmetry_equiv_pos_as_xyz
  1  'x, y, z'
loop_
 _atom_site_type_symbol
 _atom_site_label
 _atom_site_symmetry_multiplicity
 _atom_site_fract_x
 _atom_site_fract_y
 _atom_site_fract_z
 _atom_site_occupancy
  Co  Co0  1  0.81443874  0.81443874  0.62887548  1
  Co  Co1  1  0.18556126  0.18556126  0.37112452  1
  B  B2  1  0.92514447  0.42514447  0.85028794  1
  B  B3  1  0.07485553  0.57485553  0.14971206  1
  B  B4  1  0.34773265  0.34773265  0.69546431  1
  B  B5  1  0.65226735  0.65226735  0.30453569  1
  Mo  Mo6  1  0.50000000  0.00000000  0.00000000  1
