# generated using pymatgen
data_Hf2Ag
_symmetry_space_group_name_H-M   'P 1'
_cell_length_a   3.20394421
_cell_length_b   3.20394415
_cell_length_c   6.35854029
_cell_angle_alpha   104.59235936
_cell_angle_beta   104.59236041
_cell_angle_gamma   89.99998347
_symmetry_Int_Tables_number   1
_chemical_formula_structural   Hf2Ag
_chemical_formula_sum   'Hf2 Ag1'
_cell_volume   60.98842442
_cell_formula_units_Z   1
loop_
 _symmetry_equiv_pos_site_id
 _symmetry_equiv_pos_as_xyz
  1  'x, y, z'
loop_
 _atom_site_type_symbol
 _atom_site_label
 _atom_site_symmetry_multiplicity
 _atom_site_fract_x
 _atom_site_fract_y
 _atom_site_fract_z
 _atom_site_occupancy
  Hf  Hf0  1  0.33549993  0.33549993  0.67100186  1
  Hf  Hf1  1  0.66450007  0.66450007  0.32899814  1
  Ag  Ag2  1  -0.00000000  -0.00000000  0.00000000  1
