# generated using pymatgen
data_SrIn4Pd
_symmetry_space_group_name_H-M   'P 1'
_cell_length_a   8.89721627
_cell_length_b   8.89721627
_cell_length_c   7.52249575
_cell_angle_alpha   90.00000000
_cell_angle_beta   90.00000000
_cell_angle_gamma   150.06750195
_symmetry_Int_Tables_number   1
_chemical_formula_structural   SrIn4Pd
_chemical_formula_sum   'Sr2 In8 Pd2'
_cell_volume   297.13432808
_cell_formula_units_Z   2
loop_
 _symmetry_equiv_pos_site_id
 _symmetry_equiv_pos_as_xyz
  1  'x, y, z'
loop_
 _atom_site_type_symbol
 _atom_site_label
 _atom_site_symmetry_multiplicity
 _atom_site_fract_x
 _atom_site_fract_y
 _atom_site_fract_z
 _atom_site_occupancy
  Sr  Sr0  1  0.12378122  0.87621878  0.75000000  1
  Sr  Sr1  1  0.87621878  0.12378122  0.25000000  1
  In  In2  1  0.31531506  0.68468494  0.94895055  1
  In  In3  1  0.68468494  0.31531506  0.05104945  1
  In  In4  1  0.31531506  0.68468494  0.55104945  1
  In  In5  1  0.50000000  0.50000000  0.00000000  1
  In  In6  1  0.68468494  0.31531506  0.44895055  1
  In  In7  1  0.50000000  0.50000000  0.50000000  1
  In  In8  1  0.06942416  0.93057584  0.25000000  1
  In  In9  1  0.93057584  0.06942416  0.75000000  1
  Pd  Pd10  1  0.77490458  0.22509542  0.75000000  1
  Pd  Pd11  1  0.22509542  0.77490458  0.25000000  1
