# generated using pymatgen
data_TiGePd
_symmetry_space_group_name_H-M   'P 1'
_cell_length_a   6.54094064
_cell_length_b   6.54094097
_cell_length_c   3.70898257
_cell_angle_alpha   90.00000000
_cell_angle_beta   90.00000000
_cell_angle_gamma   119.99999833
_symmetry_Int_Tables_number   1
_chemical_formula_structural   TiGePd
_chemical_formula_sum   'Ti3 Ge3 Pd3'
_cell_volume   137.42503905
_cell_formula_units_Z   3
loop_
 _symmetry_equiv_pos_site_id
 _symmetry_equiv_pos_as_xyz
  1  'x, y, z'
loop_
 _atom_site_type_symbol
 _atom_site_label
 _atom_site_symmetry_multiplicity
 _atom_site_fract_x
 _atom_site_fract_y
 _atom_site_fract_z
 _atom_site_occupancy
  Ti  Ti0  1  0.41281884  0.41281884  -0.00000000  1
  Ti  Ti1  1  0.58718116  0.00000000  -0.00000000  1
  Ti  Ti2  1  1.00000000  0.58718116  0.00000000  1
  Ge  Ge3  1  0.66666700  0.33333300  0.50000000  1
  Ge  Ge4  1  0.00000000  -0.00000000  -0.00000000  1
  Ge  Ge5  1  0.33333300  0.66666700  0.50000000  1
  Pd  Pd6  1  1.00000000  0.26051532  0.50000000  1
  Pd  Pd7  1  0.73948468  0.73948468  0.50000000  1
  Pd  Pd8  1  0.26051532  0.00000000  0.50000000  1
