# generated using pymatgen
data_Ca3(SiIr)4
_symmetry_space_group_name_H-M   'P 1'
_cell_length_a   6.43603474
_cell_length_b   6.43603387
_cell_length_c   6.43603396
_cell_angle_alpha   109.47121776
_cell_angle_beta   109.47121505
_cell_angle_gamma   109.47122000
_symmetry_Int_Tables_number   1
_chemical_formula_structural   Ca3(SiIr)4
_chemical_formula_sum   'Ca3 Si4 Ir4'
_cell_volume   205.22638036
_cell_formula_units_Z   1
loop_
 _symmetry_equiv_pos_site_id
 _symmetry_equiv_pos_as_xyz
  1  'x, y, z'
loop_
 _atom_site_type_symbol
 _atom_site_label
 _atom_site_symmetry_multiplicity
 _atom_site_fract_x
 _atom_site_fract_y
 _atom_site_fract_z
 _atom_site_occupancy
  Ca  Ca0  1  0.50000000  0.50000000  0.00000000  1
  Ca  Ca1  1  0.00000000  0.50000000  0.50000000  1
  Ca  Ca2  1  0.50000000  0.00000000  0.50000000  1
  Si  Si3  1  0.00000000  0.00000000  0.36640070  1
  Si  Si4  1  0.63359930  0.63359930  0.63359930  1
  Si  Si5  1  0.36640070  0.00000000  0.00000000  1
  Si  Si6  1  -0.00000000  0.36640070  0.00000000  1
  Ir  Ir7  1  -0.00000000  -0.00000000  0.72159276  1
  Ir  Ir8  1  0.72159276  -0.00000000  -0.00000000  1
  Ir  Ir9  1  0.27840724  0.27840724  0.27840724  1
  Ir  Ir10  1  0.00000000  0.72159276  -0.00000000  1
