# generated using pymatgen
data_Y2B3C2
_symmetry_space_group_name_H-M   'P 1'
_cell_length_a   3.39703945
_cell_length_b   3.63659178
_cell_length_c   7.06342784
_cell_angle_alpha   90.00000000
_cell_angle_beta   103.91409562
_cell_angle_gamma   90.00000000
_symmetry_Int_Tables_number   1
_chemical_formula_structural   Y2B3C2
_chemical_formula_sum   'Y2 B3 C2'
_cell_volume   84.69867257
_cell_formula_units_Z   1
loop_
 _symmetry_equiv_pos_site_id
 _symmetry_equiv_pos_as_xyz
  1  'x, y, z'
loop_
 _atom_site_type_symbol
 _atom_site_label
 _atom_site_symmetry_multiplicity
 _atom_site_fract_x
 _atom_site_fract_y
 _atom_site_fract_z
 _atom_site_occupancy
  Y  Y0  1  0.36395790  0.50000000  0.72791579  1
  Y  Y1  1  0.63604210  0.50000000  0.27208421  1
  B  B2  1  0.21708502  -0.00000000  0.43416903  1
  B  B3  1  -0.00000000  -0.00000000  -0.00000000  1
  B  B4  1  0.78291498  -0.00000000  0.56583097  1
  C  C5  1  0.10463470  -0.00000000  0.20926939  1
  C  C6  1  0.89536530  0.00000000  0.79073061  1
