# generated using pymatgen
data_TiZn16
_symmetry_space_group_name_H-M   'P 1'
_cell_length_a   6.79545668
_cell_length_b   6.79545694
_cell_length_c   11.49709906
_cell_angle_alpha   90.00000000
_cell_angle_beta   90.00000000
_cell_angle_gamma   111.75165981
_symmetry_Int_Tables_number   1
_chemical_formula_structural   TiZn16
_chemical_formula_sum   'Ti2 Zn32'
_cell_volume   493.11389498
_cell_formula_units_Z   2
loop_
 _symmetry_equiv_pos_site_id
 _symmetry_equiv_pos_as_xyz
  1  'x, y, z'
loop_
 _atom_site_type_symbol
 _atom_site_label
 _atom_site_symmetry_multiplicity
 _atom_site_fract_x
 _atom_site_fract_y
 _atom_site_fract_z
 _atom_site_occupancy
  Ti  Ti0  1  0.04724371  0.95275629  0.75000000  1
  Ti  Ti1  1  0.95275629  0.04724371  0.25000000  1
  Zn  Zn2  1  0.35409409  0.98192803  0.93018134  1
  Zn  Zn3  1  0.64590591  0.01807197  0.43018134  1
  Zn  Zn4  1  0.98192803  0.35409409  0.06981866  1
  Zn  Zn5  1  0.01807197  0.64590591  0.56981866  1
  Zn  Zn6  1  0.64590591  0.01807197  0.06981866  1
  Zn  Zn7  1  0.35409409  0.98192803  0.56981866  1
  Zn  Zn8  1  0.01807197  0.64590591  0.93018134  1
  Zn  Zn9  1  0.98192803  0.35409409  0.43018134  1
  Zn  Zn10  1  0.65510252  0.75962095  0.86608463  1
  Zn  Zn11  1  0.34489748  0.24037905  0.36608463  1
  Zn  Zn12  1  0.75962095  0.65510252  0.13391537  1
  Zn  Zn13  1  0.24037905  0.34489748  0.63391537  1
  Zn  Zn14  1  0.34489748  0.24037905  0.13391537  1
  Zn  Zn15  1  0.65510252  0.75962095  0.63391537  1
  Zn  Zn16  1  0.24037905  0.34489748  0.86608463  1
  Zn  Zn17  1  0.75962095  0.65510252  0.36608463  1
  Zn  Zn18  1  0.47850216  0.19139691  0.75000000  1
  Zn  Zn19  1  0.52149784  0.80860309  0.25000000  1
  Zn  Zn20  1  0.19139691  0.47850216  0.25000000  1
  Zn  Zn21  1  0.80860309  0.52149784  0.75000000  1
  Zn  Zn22  1  0.17645185  0.82354815  0.35998395  1
  Zn  Zn23  1  0.82354815  0.17645185  0.85998395  1
  Zn  Zn24  1  0.82354815  0.17645185  0.64001605  1
  Zn  Zn25  1  0.17645185  0.82354815  0.14001605  1
  Zn  Zn26  1  0.61962108  0.38037892  0.96914925  1
  Zn  Zn27  1  0.38037892  0.61962108  0.46914925  1
  Zn  Zn28  1  0.38037892  0.61962108  0.03085075  1
  Zn  Zn29  1  0.61962108  0.38037892  0.53085075  1
  Zn  Zn30  1  0.29098265  0.70901735  0.75000000  1
  Zn  Zn31  1  0.70901735  0.29098265  0.25000000  1
  Zn  Zn32  1  0.00000000  -0.00000000  0.00000000  1
  Zn  Zn33  1  0.00000000  -0.00000000  0.50000000  1
