# generated using pymatgen
data_SrAl2
_symmetry_space_group_name_H-M   'P 1'
_cell_length_a   4.80801321
_cell_length_b   6.09029572
_cell_length_c   6.09029427
_cell_angle_alpha   81.13863939
_cell_angle_beta   66.75101451
_cell_angle_gamma   66.75101927
_symmetry_Int_Tables_number   1
_chemical_formula_structural   SrAl2
_chemical_formula_sum   'Sr2 Al4'
_cell_volume   150.55030735
_cell_formula_units_Z   2
loop_
 _symmetry_equiv_pos_site_id
 _symmetry_equiv_pos_as_xyz
  1  'x, y, z'
loop_
 _atom_site_type_symbol
 _atom_site_label
 _atom_site_symmetry_multiplicity
 _atom_site_fract_x
 _atom_site_fract_y
 _atom_site_fract_z
 _atom_site_occupancy
  Sr  Sr0  1  0.44967054  0.30032946  0.80032946  1
  Sr  Sr1  1  0.55032946  0.69967054  0.19967054  1
  Al  Al2  1  0.16063055  0.27083181  0.40790708  1
  Al  Al3  1  0.83936945  0.72916819  0.59209292  1
  Al  Al4  1  0.83936945  0.09209292  0.22916819  1
  Al  Al5  1  0.16063055  0.90790708  0.77083181  1
