# generated using pymatgen
data_TiSi2
_symmetry_space_group_name_H-M   'P 1'
_cell_length_a   4.76064196
_cell_length_b   4.76064113
_cell_length_c   4.88692788
_cell_angle_alpha   104.20688164
_cell_angle_beta   104.20689779
_cell_angle_gamma   119.74437225
_symmetry_Int_Tables_number   1
_chemical_formula_structural   TiSi2
_chemical_formula_sum   'Ti2 Si4'
_cell_volume   83.88406254
_cell_formula_units_Z   2
loop_
 _symmetry_equiv_pos_site_id
 _symmetry_equiv_pos_as_xyz
  1  'x, y, z'
loop_
 _atom_site_type_symbol
 _atom_site_label
 _atom_site_symmetry_multiplicity
 _atom_site_fract_x
 _atom_site_fract_y
 _atom_site_fract_z
 _atom_site_occupancy
  Ti  Ti0  1  0.87500000  0.12500000  0.25000000  1
  Ti  Ti1  1  0.12500000  0.87500000  0.75000000  1
  Si  Si2  1  0.53756561  0.46243439  0.25000000  1
  Si  Si3  1  0.21243439  0.78756561  0.25000000  1
  Si  Si4  1  0.78756561  0.21243439  0.75000000  1
  Si  Si5  1  0.46243439  0.53756561  0.75000000  1
