# generated using pymatgen
data_Ni3Sn
_symmetry_space_group_name_H-M   'P 1'
_cell_length_a   5.24628216
_cell_length_b   5.24628137
_cell_length_c   4.20958120
_cell_angle_alpha   90.00000000
_cell_angle_beta   90.00000000
_cell_angle_gamma   119.99999854
_symmetry_Int_Tables_number   1
_chemical_formula_structural   Ni3Sn
_chemical_formula_sum   'Ni6 Sn2'
_cell_volume   100.33968954
_cell_formula_units_Z   2
loop_
 _symmetry_equiv_pos_site_id
 _symmetry_equiv_pos_as_xyz
  1  'x, y, z'
loop_
 _atom_site_type_symbol
 _atom_site_label
 _atom_site_symmetry_multiplicity
 _atom_site_fract_x
 _atom_site_fract_y
 _atom_site_fract_z
 _atom_site_occupancy
  Ni  Ni0  1  0.84053444  0.68106988  0.25000000  1
  Ni  Ni1  1  0.15946556  0.84053444  0.75000000  1
  Ni  Ni2  1  0.68106988  0.84053444  0.75000000  1
  Ni  Ni3  1  0.31893012  0.15946556  0.25000000  1
  Ni  Ni4  1  0.84053444  0.15946556  0.25000000  1
  Ni  Ni5  1  0.15946556  0.31893012  0.75000000  1
  Sn  Sn6  1  0.33333300  0.66666700  0.25000000  1
  Sn  Sn7  1  0.66666700  0.33333300  0.75000000  1
