# generated using pymatgen
data_Ti3Cu4
_symmetry_space_group_name_H-M   'P 1'
_cell_length_a   3.11489273
_cell_length_b   3.11489340
_cell_length_c   10.13893406
_cell_angle_alpha   98.83621219
_cell_angle_beta   98.83621800
_cell_angle_gamma   90.00000133
_symmetry_Int_Tables_number   1
_chemical_formula_structural   Ti3Cu4
_chemical_formula_sum   'Ti3 Cu4'
_cell_volume   96.02431174
_cell_formula_units_Z   1
loop_
 _symmetry_equiv_pos_site_id
 _symmetry_equiv_pos_as_xyz
  1  'x, y, z'
loop_
 _atom_site_type_symbol
 _atom_site_label
 _atom_site_symmetry_multiplicity
 _atom_site_fract_x
 _atom_site_fract_y
 _atom_site_fract_z
 _atom_site_occupancy
  Ti  Ti0  1  0.70718086  0.70718086  0.41436172  1
  Ti  Ti1  1  0.29281914  0.29281914  0.58563828  1
  Ti  Ti2  1  -0.00000000  0.00000000  -0.00000000  1
  Cu  Cu3  1  0.57066175  0.57066175  0.14132149  1
  Cu  Cu4  1  0.42933825  0.42933825  0.85867851  1
  Cu  Cu5  1  0.86570579  0.86570579  0.73141258  1
  Cu  Cu6  1  0.13429421  0.13429421  0.26858742  1
