# generated using pymatgen
data_In2Pt
_symmetry_space_group_name_H-M   'P 1'
_cell_length_a   4.53347140
_cell_length_b   4.53347281
_cell_length_c   4.53347230
_cell_angle_alpha   60.00001117
_cell_angle_beta   60.00000085
_cell_angle_gamma   59.99999366
_symmetry_Int_Tables_number   1
_chemical_formula_structural   In2Pt
_chemical_formula_sum   'In2 Pt1'
_cell_volume   65.88368507
_cell_formula_units_Z   1
loop_
 _symmetry_equiv_pos_site_id
 _symmetry_equiv_pos_as_xyz
  1  'x, y, z'
loop_
 _atom_site_type_symbol
 _atom_site_label
 _atom_site_symmetry_multiplicity
 _atom_site_fract_x
 _atom_site_fract_y
 _atom_site_fract_z
 _atom_site_occupancy
  In  In0  1  0.75000000  0.75000000  0.75000000  1
  In  In1  1  0.25000000  0.25000000  0.25000000  1
  Pt  Pt2  1  0.00000000  -0.00000000  0.00000000  1
