# generated using pymatgen
data_HfCo2Sn
_symmetry_space_group_name_H-M   'P 1'
_cell_length_a   4.39515472
_cell_length_b   4.39515427
_cell_length_c   4.39515488
_cell_angle_alpha   60.00000311
_cell_angle_beta   60.00000648
_cell_angle_gamma   60.00000100
_symmetry_Int_Tables_number   1
_chemical_formula_structural   HfCo2Sn
_chemical_formula_sum   'Hf1 Co2 Sn1'
_cell_volume   60.03541435
_cell_formula_units_Z   1
loop_
 _symmetry_equiv_pos_site_id
 _symmetry_equiv_pos_as_xyz
  1  'x, y, z'
loop_
 _atom_site_type_symbol
 _atom_site_label
 _atom_site_symmetry_multiplicity
 _atom_site_fract_x
 _atom_site_fract_y
 _atom_site_fract_z
 _atom_site_occupancy
  Hf  Hf0  1  0.50000000  0.50000000  0.50000000  1
  Co  Co1  1  0.75000000  0.75000000  0.75000000  1
  Co  Co2  1  0.25000000  0.25000000  0.25000000  1
  Sn  Sn3  1  -0.00000000  0.00000000  0.00000000  1
