# generated using pymatgen
data_CuAuF5
_symmetry_space_group_name_H-M   'P 1'
_cell_length_a   3.74168224
_cell_length_b   4.95703199
_cell_length_c   5.49824400
_cell_angle_alpha   89.53271722
_cell_angle_beta   81.79779152
_cell_angle_gamma   70.68104818
_symmetry_Int_Tables_number   1
_chemical_formula_structural   CuAuF5
_chemical_formula_sum   'Cu1 Au1 F5'
_cell_volume   95.16945533
_cell_formula_units_Z   1
loop_
 _symmetry_equiv_pos_site_id
 _symmetry_equiv_pos_as_xyz
  1  'x, y, z'
loop_
 _atom_site_type_symbol
 _atom_site_label
 _atom_site_symmetry_multiplicity
 _atom_site_fract_x
 _atom_site_fract_y
 _atom_site_fract_z
 _atom_site_occupancy
  Cu  Cu0  1  -0.00000000  0.50000000  0.50000000  1
  Au  Au1  1  -0.00000000  0.00000000  -0.00000000  1
  F  F2  1  0.50000000  0.50000000  0.50000000  1
  F  F3  1  0.86084084  0.86484111  0.32205408  1
  F  F4  1  0.18774376  0.26933188  0.15525301  1
  F  F5  1  0.81225624  0.73066812  0.84474699  1
  F  F6  1  0.13915916  0.13515889  0.67794592  1
