# generated using pymatgen
data_BIrPd
_symmetry_space_group_name_H-M   'P 1'
_cell_length_a   5.51932620
_cell_length_b   5.51932607
_cell_length_c   6.08907223
_cell_angle_alpha   109.22978323
_cell_angle_beta   109.22978316
_cell_angle_gamma   105.85999413
_symmetry_Int_Tables_number   1
_chemical_formula_structural   BIrPd
_chemical_formula_sum   'B4 Ir4 Pd4'
_cell_volume   149.44081365
_cell_formula_units_Z   4
loop_
 _symmetry_equiv_pos_site_id
 _symmetry_equiv_pos_as_xyz
  1  'x, y, z'
loop_
 _atom_site_type_symbol
 _atom_site_label
 _atom_site_symmetry_multiplicity
 _atom_site_fract_x
 _atom_site_fract_y
 _atom_site_fract_z
 _atom_site_occupancy
  B  B0  1  0.05450709  0.93506664  0.52931618  1
  B  B1  1  0.68506664  0.30450709  0.02931618  1
  B  B2  1  0.40575046  0.52519191  0.47068382  1
  B  B3  1  0.27519191  0.65575046  0.97068382  1
  Ir  Ir4  1  0.10379499  0.62907159  0.23458163  1
  Ir  Ir5  1  0.37907159  0.35379499  0.73458163  1
  Ir  Ir6  1  0.61921236  0.64448896  0.26541837  1
  Ir  Ir7  1  0.39448896  0.86921236  0.76541837  1
  Pd  Pd8  1  0.93809046  0.11079072  0.22982169  1
  Pd  Pd9  1  0.45826877  0.13096703  0.27017831  1
  Pd  Pd10  1  0.86079072  0.18809046  0.72982269  1
  Pd  Pd11  1  0.88096703  0.70826877  0.77017731  1
