# generated using pymatgen
data_CoSn2
_symmetry_space_group_name_H-M   'P 1'
_cell_length_a   5.22495557
_cell_length_b   5.22495563
_cell_length_c   5.22495578
_cell_angle_alpha   105.78638724
_cell_angle_beta   105.78638421
_cell_angle_gamma   117.12266148
_symmetry_Int_Tables_number   1
_chemical_formula_structural   CoSn2
_chemical_formula_sum   'Co2 Sn4'
_cell_volume   108.31883827
_cell_formula_units_Z   2
loop_
 _symmetry_equiv_pos_site_id
 _symmetry_equiv_pos_as_xyz
  1  'x, y, z'
loop_
 _atom_site_type_symbol
 _atom_site_label
 _atom_site_symmetry_multiplicity
 _atom_site_fract_x
 _atom_site_fract_y
 _atom_site_fract_z
 _atom_site_occupancy
  Co  Co0  1  0.75000000  0.75000000  -0.00000000  1
  Co  Co1  1  0.25000000  0.25000000  -0.00000000  1
  Sn  Sn2  1  0.33337084  0.16662916  0.50000000  1
  Sn  Sn3  1  0.83337084  0.33337084  0.16673968  1
  Sn  Sn4  1  0.66662916  0.83337084  0.50000000  1
  Sn  Sn5  1  0.16662916  0.66662916  0.83326032  1
