# generated using pymatgen
data_VSb2
_symmetry_space_group_name_H-M   'P 1'
_cell_length_a   5.42567550
_cell_length_b   5.42567571
_cell_length_c   5.42567691
_cell_angle_alpha   105.60738291
_cell_angle_beta   105.60738344
_cell_angle_gamma   117.51055557
_symmetry_Int_Tables_number   1
_chemical_formula_structural   VSb2
_chemical_formula_sum   'V2 Sb4'
_cell_volume   121.11404155
_cell_formula_units_Z   2
loop_
 _symmetry_equiv_pos_site_id
 _symmetry_equiv_pos_as_xyz
  1  'x, y, z'
loop_
 _atom_site_type_symbol
 _atom_site_label
 _atom_site_symmetry_multiplicity
 _atom_site_fract_x
 _atom_site_fract_y
 _atom_site_fract_z
 _atom_site_occupancy
  V  V0  1  0.75000000  0.75000000  0.00000000  1
  V  V1  1  0.25000000  0.25000000  0.00000000  1
  Sb  Sb2  1  0.84425523  0.65574477  0.50000000  1
  Sb  Sb3  1  0.34425523  0.84425523  0.18851146  1
  Sb  Sb4  1  0.15574477  0.34425523  0.50000000  1
  Sb  Sb5  1  0.65574477  0.15574477  0.81148854  1
