# generated using pymatgen
data_NaMgF3
_symmetry_space_group_name_H-M   'P 1'
_cell_length_a   5.29698319
_cell_length_b   5.47126659
_cell_length_c   7.59868745
_cell_angle_alpha   90.00000000
_cell_angle_beta   90.00000000
_cell_angle_gamma   90.00000000
_symmetry_Int_Tables_number   1
_chemical_formula_structural   NaMgF3
_chemical_formula_sum   'Na4 Mg4 F12'
_cell_volume   220.21913510
_cell_formula_units_Z   4
loop_
 _symmetry_equiv_pos_site_id
 _symmetry_equiv_pos_as_xyz
  1  'x, y, z'
loop_
 _atom_site_type_symbol
 _atom_site_label
 _atom_site_symmetry_multiplicity
 _atom_site_fract_x
 _atom_site_fract_y
 _atom_site_fract_z
 _atom_site_occupancy
  Na  Na0  1  0.01342425  0.94744147  0.75000000  1
  Na  Na1  1  0.51342425  0.55255853  0.25000000  1
  Na  Na2  1  0.48657575  0.44744147  0.75000000  1
  Na  Na3  1  0.98657575  0.05255853  0.25000000  1
  Mg  Mg4  1  -0.00000000  0.50000000  0.50000000  1
  Mg  Mg5  1  0.50000000  -0.00000000  0.50000000  1
  Mg  Mg6  1  0.50000000  -0.00000000  -0.00000000  1
  Mg  Mg7  1  -0.00000000  0.50000000  -0.00000000  1
  F  F8  1  0.70004490  0.29693771  0.44951534  1
  F  F9  1  0.20004490  0.20306229  0.55048466  1
  F  F10  1  0.79995510  0.79693771  0.05048466  1
  F  F11  1  0.29995510  0.70306229  0.94951534  1
  F  F12  1  0.29995510  0.70306229  0.55048466  1
  F  F13  1  0.79995510  0.79693771  0.44951534  1
  F  F14  1  0.20004490  0.20306229  0.94951534  1
  F  F15  1  0.70004490  0.29693771  0.05048466  1
  F  F16  1  0.09627836  0.46836655  0.25000000  1
  F  F17  1  0.59627836  0.03163345  0.75000000  1
  F  F18  1  0.40372164  0.96836655  0.25000000  1
  F  F19  1  0.90372164  0.53163345  0.75000000  1
