# generated using pymatgen
data_InSe
_symmetry_space_group_name_H-M   'P 1'
_cell_length_a   4.04173413
_cell_length_b   4.04173420
_cell_length_c   17.42844340
_cell_angle_alpha   90.00000000
_cell_angle_beta   90.00000000
_cell_angle_gamma   119.99999098
_symmetry_Int_Tables_number   1
_chemical_formula_structural   InSe
_chemical_formula_sum   'In4 Se4'
_cell_volume   246.56121588
_cell_formula_units_Z   4
loop_
 _symmetry_equiv_pos_site_id
 _symmetry_equiv_pos_as_xyz
  1  'x, y, z'
loop_
 _atom_site_type_symbol
 _atom_site_label
 _atom_site_symmetry_multiplicity
 _atom_site_fract_x
 _atom_site_fract_y
 _atom_site_fract_z
 _atom_site_occupancy
  In  In0  1  0.33333300  0.66666700  0.33030396  1
  In  In1  1  0.66666700  0.33333300  0.83030396  1
  In  In2  1  0.66666700  0.33333300  0.66969604  1
  In  In3  1  0.33333300  0.66666700  0.16969604  1
  Se  Se4  1  0.33333300  0.66666700  0.59732476  1
  Se  Se5  1  0.66666700  0.33333300  0.09732476  1
  Se  Se6  1  0.66666700  0.33333300  0.40267524  1
  Se  Se7  1  0.33333300  0.66666700  0.90267524  1
