# generated using pymatgen
data_CrSb2
_symmetry_space_group_name_H-M   'P 1'
_cell_length_a   3.43708937
_cell_length_b   6.03132998
_cell_length_c   6.93056057
_cell_angle_alpha   90.00000000
_cell_angle_beta   90.00000000
_cell_angle_gamma   90.00000000
_symmetry_Int_Tables_number   1
_chemical_formula_structural   CrSb2
_chemical_formula_sum   'Cr2 Sb4'
_cell_volume   143.67204646
_cell_formula_units_Z   2
loop_
 _symmetry_equiv_pos_site_id
 _symmetry_equiv_pos_as_xyz
  1  'x, y, z'
loop_
 _atom_site_type_symbol
 _atom_site_label
 _atom_site_symmetry_multiplicity
 _atom_site_fract_x
 _atom_site_fract_y
 _atom_site_fract_z
 _atom_site_occupancy
  Cr  Cr0  1  0.00000000  -0.00000000  0.00000000  1
  Cr  Cr1  1  0.50000000  0.50000000  0.50000000  1
  Sb  Sb2  1  -0.00000000  0.82257204  0.63601436  1
  Sb  Sb3  1  0.50000000  0.67742796  0.13601436  1
  Sb  Sb4  1  0.00000000  0.17742796  0.36398564  1
  Sb  Sb5  1  0.50000000  0.32257204  0.86398564  1
