# generated using pymatgen
data_CaGePt
_symmetry_space_group_name_H-M   'P 1'
_cell_length_a   4.41906818
_cell_length_b   7.19164653
_cell_length_c   7.41378469
_cell_angle_alpha   90.00000000
_cell_angle_beta   90.00000000
_cell_angle_gamma   90.00000000
_symmetry_Int_Tables_number   1
_chemical_formula_structural   CaGePt
_chemical_formula_sum   'Ca4 Ge4 Pt4'
_cell_volume   235.61286757
_cell_formula_units_Z   4
loop_
 _symmetry_equiv_pos_site_id
 _symmetry_equiv_pos_as_xyz
  1  'x, y, z'
loop_
 _atom_site_type_symbol
 _atom_site_label
 _atom_site_symmetry_multiplicity
 _atom_site_fract_x
 _atom_site_fract_y
 _atom_site_fract_z
 _atom_site_occupancy
  Ca  Ca0  1  0.75000000  0.00684307  0.30434104  1
  Ca  Ca1  1  0.25000000  0.99315693  0.69565896  1
  Ca  Ca2  1  0.75000000  0.50684307  0.19565896  1
  Ca  Ca3  1  0.25000000  0.49315693  0.80434104  1
  Ge  Ge4  1  0.75000000  0.68018296  0.58276179  1
  Ge  Ge5  1  0.25000000  0.31981704  0.41723821  1
  Ge  Ge6  1  0.75000000  0.18018296  0.91723821  1
  Ge  Ge7  1  0.25000000  0.81981704  0.08276179  1
  Pt  Pt8  1  0.75000000  0.80258328  0.90682464  1
  Pt  Pt9  1  0.25000000  0.19741672  0.09317536  1
  Pt  Pt10  1  0.75000000  0.30258328  0.59317536  1
  Pt  Pt11  1  0.25000000  0.69741672  0.40682464  1
