# generated using pymatgen
data_IrW
_symmetry_space_group_name_H-M   'P 1'
_cell_length_a   2.77296140
_cell_length_b   4.46946766
_cell_length_c   4.82512239
_cell_angle_alpha   90.00000000
_cell_angle_beta   90.00000000
_cell_angle_gamma   90.00000000
_symmetry_Int_Tables_number   1
_chemical_formula_structural   IrW
_chemical_formula_sum   'Ir2 W2'
_cell_volume   59.80093263
_cell_formula_units_Z   2
loop_
 _symmetry_equiv_pos_site_id
 _symmetry_equiv_pos_as_xyz
  1  'x, y, z'
loop_
 _atom_site_type_symbol
 _atom_site_label
 _atom_site_symmetry_multiplicity
 _atom_site_fract_x
 _atom_site_fract_y
 _atom_site_fract_z
 _atom_site_occupancy
  Ir  Ir0  1  0.50000000  0.25000000  0.67756738  1
  Ir  Ir1  1  0.50000000  0.75000000  0.32243262  1
  W  W2  1  0.00000000  0.25000000  0.17262225  1
  W  W3  1  0.00000000  0.75000000  0.82737775  1
