# generated using pymatgen
data_Mg2In
_symmetry_space_group_name_H-M   'P 1'
_cell_length_a   8.35892804
_cell_length_b   8.35892987
_cell_length_c   3.34684205
_cell_angle_alpha   90.00000000
_cell_angle_beta   90.00000000
_cell_angle_gamma   120.00000066
_symmetry_Int_Tables_number   1
_chemical_formula_structural   Mg2In
_chemical_formula_sum   'Mg6 In3'
_cell_volume   202.51962470
_cell_formula_units_Z   3
loop_
 _symmetry_equiv_pos_site_id
 _symmetry_equiv_pos_as_xyz
  1  'x, y, z'
loop_
 _atom_site_type_symbol
 _atom_site_label
 _atom_site_symmetry_multiplicity
 _atom_site_fract_x
 _atom_site_fract_y
 _atom_site_fract_z
 _atom_site_occupancy
  Mg  Mg0  1  0.29594889  0.00000000  0.00000000  1
  Mg  Mg1  1  0.70405111  0.70405111  0.00000000  1
  Mg  Mg2  1  -0.00000000  0.29594889  -0.00000000  1
  Mg  Mg3  1  0.63210829  0.00000000  0.50000000  1
  Mg  Mg4  1  0.36789171  0.36789171  0.50000000  1
  Mg  Mg5  1  -0.00000000  0.63210829  0.50000000  1
  In  In6  1  -0.00000000  -0.00000000  0.50000000  1
  In  In7  1  0.33333300  0.66666700  0.00000000  1
  In  In8  1  0.66666700  0.33333300  -0.00000000  1
