# generated using pymatgen
data_ZrCu5
_symmetry_space_group_name_H-M   'P 1'
_cell_length_a   4.82465578
_cell_length_b   4.82465605
_cell_length_c   4.82465908
_cell_angle_alpha   59.99997921
_cell_angle_beta   59.99997739
_cell_angle_gamma   59.99994395
_symmetry_Int_Tables_number   1
_chemical_formula_structural   ZrCu5
_chemical_formula_sum   'Zr1 Cu5'
_cell_volume   79.41160942
_cell_formula_units_Z   1
loop_
 _symmetry_equiv_pos_site_id
 _symmetry_equiv_pos_as_xyz
  1  'x, y, z'
loop_
 _atom_site_type_symbol
 _atom_site_label
 _atom_site_symmetry_multiplicity
 _atom_site_fract_x
 _atom_site_fract_y
 _atom_site_fract_z
 _atom_site_occupancy
  Zr  Zr0  1  0.00000000  -0.00000000  -0.00000000  1
  Cu  Cu1  1  0.25000000  0.25000000  0.25000000  1
  Cu  Cu2  1  0.62411083  0.62411083  0.62411083  1
  Cu  Cu3  1  0.62411083  0.62411083  0.12766852  1
  Cu  Cu4  1  0.12766852  0.62411083  0.62411083  1
  Cu  Cu5  1  0.62411083  0.12766852  0.62411083  1
