# generated using pymatgen
data_CaZn
_symmetry_space_group_name_H-M   'P 1'
_cell_length_a   4.20327530
_cell_length_b   4.45028337
_cell_length_c   5.98186779
_cell_angle_alpha   90.00000000
_cell_angle_beta   110.56897105
_cell_angle_gamma   90.00000000
_symmetry_Int_Tables_number   1
_chemical_formula_structural   CaZn
_chemical_formula_sum   'Ca2 Zn2'
_cell_volume   104.76208043
_cell_formula_units_Z   2
loop_
 _symmetry_equiv_pos_site_id
 _symmetry_equiv_pos_as_xyz
  1  'x, y, z'
loop_
 _atom_site_type_symbol
 _atom_site_label
 _atom_site_symmetry_multiplicity
 _atom_site_fract_x
 _atom_site_fract_y
 _atom_site_fract_z
 _atom_site_occupancy
  Ca  Ca0  1  0.85473142  0.25000000  0.70946185  1
  Ca  Ca1  1  0.14526858  0.75000000  0.29053815  1
  Zn  Zn2  1  0.56087848  0.25000000  0.12175696  1
  Zn  Zn3  1  0.43912152  0.75000000  0.87824304  1
