# generated using pymatgen
data_Ca5Ag3
_symmetry_space_group_name_H-M   'P 1'
_cell_length_a   7.96323387
_cell_length_b   7.96323553
_cell_length_c   9.37098771
_cell_angle_alpha   115.14355912
_cell_angle_beta   115.14355950
_cell_angle_gamma   89.99999290
_symmetry_Int_Tables_number   1
_chemical_formula_structural   Ca5Ag3
_chemical_formula_sum   'Ca10 Ag6'
_cell_volume   475.00121352
_cell_formula_units_Z   2
loop_
 _symmetry_equiv_pos_site_id
 _symmetry_equiv_pos_as_xyz
  1  'x, y, z'
loop_
 _atom_site_type_symbol
 _atom_site_label
 _atom_site_symmetry_multiplicity
 _atom_site_fract_x
 _atom_site_fract_y
 _atom_site_fract_z
 _atom_site_occupancy
  Ca  Ca0  1  0.00000000  -0.00000000  0.00000000  1
  Ca  Ca1  1  0.50000000  0.50000000  0.00000000  1
  Ca  Ca2  1  0.31475061  0.81475061  0.28998783  1
  Ca  Ca3  1  0.47523722  0.31475061  0.28998783  1
  Ca  Ca4  1  0.81475061  0.97523722  0.28998783  1
  Ca  Ca5  1  0.52476278  0.68524939  0.71001217  1
  Ca  Ca6  1  0.18524939  0.02476278  0.71001217  1
  Ca  Ca7  1  0.02476278  0.52476278  0.71001217  1
  Ca  Ca8  1  0.68524939  0.18524939  0.71001217  1
  Ca  Ca9  1  0.97523722  0.47523722  0.28998783  1
  Ag  Ag10  1  0.25000000  0.25000000  0.50000000  1
  Ag  Ag11  1  0.75000000  0.75000000  0.50000000  1
  Ag  Ag12  1  0.37533832  0.87533832  -0.00000000  1
  Ag  Ag13  1  0.12466168  0.37533832  0.00000000  1
  Ag  Ag14  1  0.87533832  0.62466168  -0.00000000  1
  Ag  Ag15  1  0.62466168  0.12466168  0.00000000  1
