# generated using pymatgen
data_NiSbS
_symmetry_space_group_name_H-M   'P 1'
_cell_length_a   5.92869820
_cell_length_b   5.92869923
_cell_length_c   5.92869820
_cell_angle_alpha   90.00097395
_cell_angle_beta   89.99906606
_cell_angle_gamma   89.99904615
_symmetry_Int_Tables_number   1
_chemical_formula_structural   NiSbS
_chemical_formula_sum   'Ni4 Sb4 S4'
_cell_volume   208.39059031
_cell_formula_units_Z   4
loop_
 _symmetry_equiv_pos_site_id
 _symmetry_equiv_pos_as_xyz
  1  'x, y, z'
loop_
 _atom_site_type_symbol
 _atom_site_label
 _atom_site_symmetry_multiplicity
 _atom_site_fract_x
 _atom_site_fract_y
 _atom_site_fract_z
 _atom_site_occupancy
  Ni  Ni0  1  0.51652462  0.48347538  0.98347538  1
  Ni  Ni1  1  0.48346217  0.98345509  0.51655225  1
  Ni  Ni2  1  0.01654391  0.01655125  0.01653683  1
  Ni  Ni3  1  0.98344775  0.51653783  0.48345509  1
  Sb  Sb4  1  0.62778893  0.87213174  0.12780076  1
  Sb  Sb5  1  0.12786726  0.62780076  0.87221107  1
  Sb  Sb6  1  0.37219924  0.37221207  0.37213174  1
  Sb  Sb7  1  0.87217370  0.12782730  0.62782730  1
  S  S8  1  0.38078444  0.11921269  0.88079048  1
  S  S9  1  0.88078731  0.38079148  0.11921656  1
  S  S10  1  0.11921013  0.88078887  0.38078887  1
  S  S11  1  0.61920952  0.61921556  0.61921269  1
