# generated using pymatgen
data_TaPd2
_symmetry_space_group_name_H-M   'P 1'
_cell_length_a   2.87867774
_cell_length_b   3.84945966
_cell_length_c   4.85740826
_cell_angle_alpha   113.35696411
_cell_angle_beta   107.17593770
_cell_angle_gamma   90.02623328
_symmetry_Int_Tables_number   1
_chemical_formula_structural   TaPd2
_chemical_formula_sum   'Ta1 Pd2'
_cell_volume   46.78608668
_cell_formula_units_Z   1
loop_
 _symmetry_equiv_pos_site_id
 _symmetry_equiv_pos_as_xyz
  1  'x, y, z'
loop_
 _atom_site_type_symbol
 _atom_site_label
 _atom_site_symmetry_multiplicity
 _atom_site_fract_x
 _atom_site_fract_y
 _atom_site_fract_z
 _atom_site_occupancy
  Ta  Ta0  1  -0.00000000  -0.00000000  -0.00000000  1
  Pd  Pd1  1  0.33486346  0.33485892  0.66959812  1
  Pd  Pd2  1  0.66513654  0.66514108  0.33040188  1
