# generated using pymatgen
data_Mg3Cd
_symmetry_space_group_name_H-M   'P 1'
_cell_length_a   6.30025307
_cell_length_b   6.30026164
_cell_length_c   4.94693497
_cell_angle_alpha   90.00000000
_cell_angle_beta   90.00000000
_cell_angle_gamma   120.00004016
_symmetry_Int_Tables_number   1
_chemical_formula_structural   Mg3Cd
_chemical_formula_sum   'Mg6 Cd2'
_cell_volume   170.05258462
_cell_formula_units_Z   2
loop_
 _symmetry_equiv_pos_site_id
 _symmetry_equiv_pos_as_xyz
  1  'x, y, z'
loop_
 _atom_site_type_symbol
 _atom_site_label
 _atom_site_symmetry_multiplicity
 _atom_site_fract_x
 _atom_site_fract_y
 _atom_site_fract_z
 _atom_site_occupancy
  Mg  Mg0  1  0.16752753  0.33505306  0.75000000  1
  Mg  Mg1  1  0.83247247  0.16752753  0.25000000  1
  Mg  Mg2  1  0.83247247  0.66494694  0.25000000  1
  Mg  Mg3  1  0.16752753  0.83247247  0.75000000  1
  Mg  Mg4  1  0.66494694  0.83247247  0.75000000  1
  Mg  Mg5  1  0.33505306  0.16752753  0.25000000  1
  Cd  Cd6  1  0.66666600  0.33333300  0.75000000  1
  Cd  Cd7  1  0.33333400  0.66666700  0.25000000  1
