# generated using pymatgen
data_Mg2Zn11
_symmetry_space_group_name_H-M   'P 1'
_cell_length_a   8.41170576
_cell_length_b   8.41170576
_cell_length_c   8.41170576
_cell_angle_alpha   90.00000000
_cell_angle_beta   90.00000000
_cell_angle_gamma   90.00000000
_symmetry_Int_Tables_number   1
_chemical_formula_structural   Mg2Zn11
_chemical_formula_sum   'Mg6 Zn33'
_cell_volume   595.18532991
_cell_formula_units_Z   3
loop_
 _symmetry_equiv_pos_site_id
 _symmetry_equiv_pos_as_xyz
  1  'x, y, z'
loop_
 _atom_site_type_symbol
 _atom_site_label
 _atom_site_symmetry_multiplicity
 _atom_site_fract_x
 _atom_site_fract_y
 _atom_site_fract_z
 _atom_site_occupancy
  Mg  Mg0  1  0.30220505  0.00000000  0.50000000  1
  Mg  Mg1  1  0.50000000  0.30220505  -0.00000000  1
  Mg  Mg2  1  0.00000000  0.50000000  0.30220505  1
  Mg  Mg3  1  0.50000000  0.69779495  -0.00000000  1
  Mg  Mg4  1  0.00000000  0.50000000  0.69779495  1
  Mg  Mg5  1  0.69779495  0.00000000  0.50000000  1
  Zn  Zn6  1  0.50000000  0.50000000  0.50000000  1
  Zn  Zn7  1  0.22974277  0.00000000  -0.00000000  1
  Zn  Zn8  1  0.00000000  0.22974277  -0.00000000  1
  Zn  Zn9  1  0.00000000  0.00000000  0.22974277  1
  Zn  Zn10  1  0.00000000  0.77025723  -0.00000000  1
  Zn  Zn11  1  0.00000000  0.00000000  0.77025723  1
  Zn  Zn12  1  0.77025723  0.00000000  -0.00000000  1
  Zn  Zn13  1  0.16089799  0.50000000  -0.00000000  1
  Zn  Zn14  1  0.00000000  0.16089799  0.50000000  1
  Zn  Zn15  1  0.50000000  0.00000000  0.16089799  1
  Zn  Zn16  1  0.00000000  0.83910201  0.50000000  1
  Zn  Zn17  1  0.50000000  0.00000000  0.83910201  1
  Zn  Zn18  1  0.83910201  0.50000000  -0.00000000  1
  Zn  Zn19  1  0.21834956  0.21834956  0.21834956  1
  Zn  Zn20  1  0.78165044  0.78165044  0.21834956  1
  Zn  Zn21  1  0.21834956  0.78165044  0.78165044  1
  Zn  Zn22  1  0.78165044  0.21834956  0.78165044  1
  Zn  Zn23  1  0.78165044  0.78165044  0.78165044  1
  Zn  Zn24  1  0.21834956  0.21834956  0.78165044  1
  Zn  Zn25  1  0.78165044  0.21834956  0.21834956  1
  Zn  Zn26  1  0.21834956  0.78165044  0.21834956  1
  Zn  Zn27  1  0.50000000  0.23619669  0.34237780  1
  Zn  Zn28  1  0.34237780  0.50000000  0.23619669  1
  Zn  Zn29  1  0.23619669  0.34237780  0.50000000  1
  Zn  Zn30  1  0.76380331  0.65762220  0.50000000  1
  Zn  Zn31  1  0.34237780  0.50000000  0.76380331  1
  Zn  Zn32  1  0.76380331  0.34237780  0.50000000  1
  Zn  Zn33  1  0.65762220  0.50000000  0.23619669  1
  Zn  Zn34  1  0.65762220  0.50000000  0.76380331  1
  Zn  Zn35  1  0.23619669  0.65762220  0.50000000  1
  Zn  Zn36  1  0.50000000  0.76380331  0.65762220  1
  Zn  Zn37  1  0.50000000  0.23619669  0.65762220  1
  Zn  Zn38  1  0.50000000  0.76380331  0.34237780  1
