# generated using pymatgen
data_MgCuSb
_symmetry_space_group_name_H-M   'P 1'
_cell_length_a   4.37230599
_cell_length_b   4.37230632
_cell_length_c   4.37230623
_cell_angle_alpha   60.00000063
_cell_angle_beta   59.99999812
_cell_angle_gamma   60.00000121
_symmetry_Int_Tables_number   1
_chemical_formula_structural   MgCuSb
_chemical_formula_sum   'Mg1 Cu1 Sb1'
_cell_volume   59.10397672
_cell_formula_units_Z   1
loop_
 _symmetry_equiv_pos_site_id
 _symmetry_equiv_pos_as_xyz
  1  'x, y, z'
loop_
 _atom_site_type_symbol
 _atom_site_label
 _atom_site_symmetry_multiplicity
 _atom_site_fract_x
 _atom_site_fract_y
 _atom_site_fract_z
 _atom_site_occupancy
  Mg  Mg0  1  0.50000000  0.50000000  0.50000000  1
  Cu  Cu1  1  0.25000000  0.25000000  0.25000000  1
  Sb  Sb2  1  0.00000000  0.00000000  0.00000000  1
