# generated using pymatgen
data_Rh3W
_symmetry_space_group_name_H-M   'P 1'
_cell_length_a   5.47692595
_cell_length_b   5.47692656
_cell_length_c   4.34369129
_cell_angle_alpha   90.00000000
_cell_angle_beta   90.00000000
_cell_angle_gamma   120.00000866
_symmetry_Int_Tables_number   1
_chemical_formula_structural   Rh3W
_chemical_formula_sum   'Rh6 W2'
_cell_volume   112.84006633
_cell_formula_units_Z   2
loop_
 _symmetry_equiv_pos_site_id
 _symmetry_equiv_pos_as_xyz
  1  'x, y, z'
loop_
 _atom_site_type_symbol
 _atom_site_label
 _atom_site_symmetry_multiplicity
 _atom_site_fract_x
 _atom_site_fract_y
 _atom_site_fract_z
 _atom_site_occupancy
  Rh  Rh0  1  0.83329610  0.66659221  0.25000000  1
  Rh  Rh1  1  0.16670390  0.83329610  0.75000000  1
  Rh  Rh2  1  0.66659221  0.83329610  0.75000000  1
  Rh  Rh3  1  0.33340779  0.16670390  0.25000000  1
  Rh  Rh4  1  0.83329610  0.16670390  0.25000000  1
  Rh  Rh5  1  0.16670390  0.33340779  0.75000000  1
  W  W6  1  0.33333300  0.66666700  0.25000000  1
  W  W7  1  0.66666700  0.33333300  0.75000000  1
