# generated using pymatgen
data_Ti3Ga
_symmetry_space_group_name_H-M   'P 1'
_cell_length_a   5.68686926
_cell_length_b   5.68686834
_cell_length_c   4.61893144
_cell_angle_alpha   90.00000000
_cell_angle_beta   90.00000000
_cell_angle_gamma   120.00000538
_symmetry_Int_Tables_number   1
_chemical_formula_structural   Ti3Ga
_chemical_formula_sum   'Ti6 Ga2'
_cell_volume   129.36552090
_cell_formula_units_Z   2
loop_
 _symmetry_equiv_pos_site_id
 _symmetry_equiv_pos_as_xyz
  1  'x, y, z'
loop_
 _atom_site_type_symbol
 _atom_site_label
 _atom_site_symmetry_multiplicity
 _atom_site_fract_x
 _atom_site_fract_y
 _atom_site_fract_z
 _atom_site_occupancy
  Ti  Ti0  1  0.17059792  0.34119383  0.75000000  1
  Ti  Ti1  1  0.82940208  0.17059792  0.25000000  1
  Ti  Ti2  1  0.82940208  0.65880617  0.25000000  1
  Ti  Ti3  1  0.17059792  0.82940208  0.75000000  1
  Ti  Ti4  1  0.65880617  0.82940208  0.75000000  1
  Ti  Ti5  1  0.34119383  0.17059792  0.25000000  1
  Ga  Ga6  1  0.66666700  0.33333300  0.75000000  1
  Ga  Ga7  1  0.33333300  0.66666700  0.25000000  1
