# generated using pymatgen
data_Sn3Pt2
_symmetry_space_group_name_H-M   'P 1'
_cell_length_a   4.37376576
_cell_length_b   4.37376293
_cell_length_c   13.06807250
_cell_angle_alpha   90.00000000
_cell_angle_beta   90.00000000
_cell_angle_gamma   119.99999845
_symmetry_Int_Tables_number   1
_chemical_formula_structural   Sn3Pt2
_chemical_formula_sum   'Sn6 Pt4'
_cell_volume   216.49752371
_cell_formula_units_Z   2
loop_
 _symmetry_equiv_pos_site_id
 _symmetry_equiv_pos_as_xyz
  1  'x, y, z'
loop_
 _atom_site_type_symbol
 _atom_site_label
 _atom_site_symmetry_multiplicity
 _atom_site_fract_x
 _atom_site_fract_y
 _atom_site_fract_z
 _atom_site_occupancy
  Sn  Sn0  1  0.66666700  0.33333300  0.07117011  1
  Sn  Sn1  1  0.33333300  0.66666700  0.92882989  1
  Sn  Sn2  1  0.66666700  0.33333300  0.42882989  1
  Sn  Sn3  1  0.33333300  0.66666700  0.57117011  1
  Sn  Sn4  1  0.00000000  0.00000000  0.25000000  1
  Sn  Sn5  1  0.00000000  -0.00000000  0.75000000  1
  Pt  Pt6  1  0.33333300  0.66666700  0.14306497  1
  Pt  Pt7  1  0.66666700  0.33333300  0.64306497  1
  Pt  Pt8  1  0.33333300  0.66666700  0.35693503  1
  Pt  Pt9  1  0.66666700  0.33333300  0.85693503  1
