# generated using pymatgen
data_Ba(AlGe)2
_symmetry_space_group_name_H-M   'P 1'
_cell_length_a   4.16787612
_cell_length_b   4.16787653
_cell_length_c   7.49583443
_cell_angle_alpha   106.14164795
_cell_angle_beta   106.14164871
_cell_angle_gamma   89.99999710
_symmetry_Int_Tables_number   1
_chemical_formula_structural   Ba(AlGe)2
_chemical_formula_sum   'Ba1 Al2 Ge2'
_cell_volume   119.72511700
_cell_formula_units_Z   1
loop_
 _symmetry_equiv_pos_site_id
 _symmetry_equiv_pos_as_xyz
  1  'x, y, z'
loop_
 _atom_site_type_symbol
 _atom_site_label
 _atom_site_symmetry_multiplicity
 _atom_site_fract_x
 _atom_site_fract_y
 _atom_site_fract_z
 _atom_site_occupancy
  Ba  Ba0  1  0.00000000  -0.00000000  -0.00000000  1
  Al  Al1  1  0.25000000  0.75000000  0.50000000  1
  Al  Al2  1  0.75000000  0.25000000  0.50000000  1
  Ge  Ge3  1  0.63926725  0.63926725  0.27853349  1
  Ge  Ge4  1  0.36073275  0.36073275  0.72146651  1
