# generated using pymatgen
data_Ca2SiIr2
_symmetry_space_group_name_H-M   'P 1'
_cell_length_a   5.65180112
_cell_length_b   5.65180331
_cell_length_c   7.31226601
_cell_angle_alpha   80.97779607
_cell_angle_beta   80.97780018
_cell_angle_gamma   61.94109956
_symmetry_Int_Tables_number   1
_chemical_formula_structural   Ca2SiIr2
_chemical_formula_sum   'Ca4 Si2 Ir4'
_cell_volume   202.64479010
_cell_formula_units_Z   2
loop_
 _symmetry_equiv_pos_site_id
 _symmetry_equiv_pos_as_xyz
  1  'x, y, z'
loop_
 _atom_site_type_symbol
 _atom_site_label
 _atom_site_symmetry_multiplicity
 _atom_site_fract_x
 _atom_site_fract_y
 _atom_site_fract_z
 _atom_site_occupancy
  Ca  Ca0  1  0.72306075  0.98494381  0.13881164  1
  Ca  Ca1  1  0.01505619  0.27693925  0.36118836  1
  Ca  Ca2  1  0.27693925  0.01505619  0.86118836  1
  Ca  Ca3  1  0.98494381  0.72306075  0.63881164  1
  Si  Si4  1  0.56503162  0.43496838  0.75000000  1
  Si  Si5  1  0.43496838  0.56503162  0.25000000  1
  Ir  Ir6  1  0.77550074  0.48972972  0.98968859  1
  Ir  Ir7  1  0.51027028  0.22449926  0.51031141  1
  Ir  Ir8  1  0.22449926  0.51027028  0.01031141  1
  Ir  Ir9  1  0.48972972  0.77550074  0.48968859  1
