# generated using pymatgen
data_YAlSi
_symmetry_space_group_name_H-M   'P 1'
_cell_length_a   3.98024695
_cell_length_b   5.53916600
_cell_length_c   5.70503156
_cell_angle_alpha   90.00000000
_cell_angle_beta   90.00000000
_cell_angle_gamma   111.05610560
_symmetry_Int_Tables_number   1
_chemical_formula_structural   YAlSi
_chemical_formula_sum   'Y2 Al2 Si2'
_cell_volume   117.38178293
_cell_formula_units_Z   2
loop_
 _symmetry_equiv_pos_site_id
 _symmetry_equiv_pos_as_xyz
  1  'x, y, z'
loop_
 _atom_site_type_symbol
 _atom_site_label
 _atom_site_symmetry_multiplicity
 _atom_site_fract_x
 _atom_site_fract_y
 _atom_site_fract_z
 _atom_site_occupancy
  Y  Y0  1  0.69480264  0.38960528  0.25000000  1
  Y  Y1  1  0.30519736  0.61039472  0.75000000  1
  Al  Al2  1  -0.00000000  -0.00000000  0.50000000  1
  Al  Al3  1  -0.00000000  -0.00000000  0.00000000  1
  Si  Si4  1  0.59830685  0.19661370  0.75000000  1
  Si  Si5  1  0.40169315  0.80338630  0.25000000  1
