# generated using pymatgen
data_Sc3FeC4
_symmetry_space_group_name_H-M   'P 1'
_cell_length_a   3.44298380
_cell_length_b   4.38601280
_cell_length_c   6.57631479
_cell_angle_alpha   109.48036874
_cell_angle_beta   105.17522288
_cell_angle_gamma   90.00000235
_symmetry_Int_Tables_number   1
_chemical_formula_structural   Sc3FeC4
_chemical_formula_sum   'Sc3 Fe1 C4'
_cell_volume   89.94236355
_cell_formula_units_Z   1
loop_
 _symmetry_equiv_pos_site_id
 _symmetry_equiv_pos_as_xyz
  1  'x, y, z'
loop_
 _atom_site_type_symbol
 _atom_site_label
 _atom_site_symmetry_multiplicity
 _atom_site_fract_x
 _atom_site_fract_y
 _atom_site_fract_z
 _atom_site_occupancy
  Sc  Sc0  1  -0.00000000  0.50000000  -0.00000000  1
  Sc  Sc1  1  0.18852167  0.18851127  0.37704534  1
  Sc  Sc2  1  0.81147833  0.81148873  0.62295466  1
  Fe  Fe3  1  0.50000000  -0.00000000  -0.00000000  1
  C  C4  1  0.37635155  0.20953586  0.75270310  1
  C  C5  1  0.62364845  0.79046414  0.24729690  1
  C  C6  1  0.62365711  0.45681651  0.24731323  1
  C  C7  1  0.37634289  0.54318349  0.75268677  1
