# generated using pymatgen
data_Ca(AlZn)2
_symmetry_space_group_name_H-M   'P 1'
_cell_length_a   4.08135728
_cell_length_b   4.08135652
_cell_length_c   6.38603448
_cell_angle_alpha   108.63591178
_cell_angle_beta   108.63590202
_cell_angle_gamma   90.00000889
_symmetry_Int_Tables_number   1
_chemical_formula_structural   Ca(AlZn)2
_chemical_formula_sum   'Ca1 Al2 Zn2'
_cell_volume   94.89308983
_cell_formula_units_Z   1
loop_
 _symmetry_equiv_pos_site_id
 _symmetry_equiv_pos_as_xyz
  1  'x, y, z'
loop_
 _atom_site_type_symbol
 _atom_site_label
 _atom_site_symmetry_multiplicity
 _atom_site_fract_x
 _atom_site_fract_y
 _atom_site_fract_z
 _atom_site_occupancy
  Ca  Ca0  1  -0.00000000  -0.00000000  -0.00000000  1
  Al  Al1  1  0.75000000  0.25000000  0.50000000  1
  Al  Al2  1  0.25000000  0.75000000  0.50000000  1
  Zn  Zn3  1  0.39187008  0.39187008  0.78374115  1
  Zn  Zn4  1  0.60812992  0.60812992  0.21625885  1
