# generated using pymatgen
data_Mn2Au5
_symmetry_space_group_name_H-M   'P 1'
_cell_length_a   3.91278441
_cell_length_b   5.02494166
_cell_length_c   6.57014906
_cell_angle_alpha   96.55946151
_cell_angle_beta   90.00000000
_cell_angle_gamma   112.91321503
_symmetry_Int_Tables_number   1
_chemical_formula_structural   Mn2Au5
_chemical_formula_sum   'Mn2 Au5'
_cell_volume   118.06767273
_cell_formula_units_Z   1
loop_
 _symmetry_equiv_pos_site_id
 _symmetry_equiv_pos_as_xyz
  1  'x, y, z'
loop_
 _atom_site_type_symbol
 _atom_site_label
 _atom_site_symmetry_multiplicity
 _atom_site_fract_x
 _atom_site_fract_y
 _atom_site_fract_z
 _atom_site_occupancy
  Mn  Mn0  1  0.57714323  0.15428646  0.71901072  1
  Mn  Mn1  1  0.42285677  0.84571354  0.28098928  1
  Au  Au2  1  0.86324060  0.72648021  0.56733118  1
  Au  Au3  1  0.71259689  0.42519379  0.14445119  1
  Au  Au4  1  0.28740311  0.57480621  0.85554881  1
  Au  Au5  1  0.13675940  0.27351979  0.43266882  1
  Au  Au6  1  0.00000000  0.00000000  0.00000000  1
