# generated using pymatgen
data_Y(SiIr)2
_symmetry_space_group_name_H-M   'P 1'
_cell_length_a   4.06812796
_cell_length_b   4.06812721
_cell_length_c   5.73627456
_cell_angle_alpha   110.76873358
_cell_angle_beta   110.76873693
_cell_angle_gamma   89.99998700
_symmetry_Int_Tables_number   1
_chemical_formula_structural   Y(SiIr)2
_chemical_formula_sum   'Y1 Si2 Ir2'
_cell_volume   82.13370697
_cell_formula_units_Z   1
loop_
 _symmetry_equiv_pos_site_id
 _symmetry_equiv_pos_as_xyz
  1  'x, y, z'
loop_
 _atom_site_type_symbol
 _atom_site_label
 _atom_site_symmetry_multiplicity
 _atom_site_fract_x
 _atom_site_fract_y
 _atom_site_fract_z
 _atom_site_occupancy
  Y  Y0  1  -0.00000000  -0.00000000  -0.00000000  1
  Si  Si1  1  0.62198707  0.62198707  0.24397413  1
  Si  Si2  1  0.37801293  0.37801293  0.75602587  1
  Ir  Ir3  1  0.25000000  0.75000000  0.50000000  1
  Ir  Ir4  1  0.75000000  0.25000000  0.50000000  1
