# generated using pymatgen
data_Ba(FeP)2
_symmetry_space_group_name_H-M   'P 1'
_cell_length_a   3.79396954
_cell_length_b   3.79397049
_cell_length_c   6.74660070
_cell_angle_alpha   106.33044130
_cell_angle_beta   106.33044237
_cell_angle_gamma   89.99998432
_symmetry_Int_Tables_number   1
_chemical_formula_structural   Ba(FeP)2
_chemical_formula_sum   'Ba1 Fe2 P2'
_cell_volume   89.10411303
_cell_formula_units_Z   1
loop_
 _symmetry_equiv_pos_site_id
 _symmetry_equiv_pos_as_xyz
  1  'x, y, z'
loop_
 _atom_site_type_symbol
 _atom_site_label
 _atom_site_symmetry_multiplicity
 _atom_site_fract_x
 _atom_site_fract_y
 _atom_site_fract_z
 _atom_site_occupancy
  Ba  Ba0  1  -0.00000000  0.00000000  0.00000000  1
  Fe  Fe1  1  0.25000000  0.75000000  0.50000000  1
  Fe  Fe2  1  0.75000000  0.25000000  0.50000000  1
  P  P3  1  0.66317038  0.66317038  0.32634076  1
  P  P4  1  0.33682962  0.33682962  0.67365924  1
