# generated using pymatgen
data_MgCuAs
_symmetry_space_group_name_H-M   'P 1'
_cell_length_a   3.97212863
_cell_length_b   3.97212863
_cell_length_c   6.23651500
_cell_angle_alpha   90.00000000
_cell_angle_beta   90.00000000
_cell_angle_gamma   90.00000000
_symmetry_Int_Tables_number   1
_chemical_formula_structural   MgCuAs
_chemical_formula_sum   'Mg2 Cu2 As2'
_cell_volume   98.39852287
_cell_formula_units_Z   2
loop_
 _symmetry_equiv_pos_site_id
 _symmetry_equiv_pos_as_xyz
  1  'x, y, z'
loop_
 _atom_site_type_symbol
 _atom_site_label
 _atom_site_symmetry_multiplicity
 _atom_site_fract_x
 _atom_site_fract_y
 _atom_site_fract_z
 _atom_site_occupancy
  Mg  Mg0  1  0.75000000  0.75000000  0.31829974  1
  Mg  Mg1  1  0.25000000  0.25000000  0.68170026  1
  Cu  Cu2  1  0.25000000  0.75000000  -0.00000000  1
  Cu  Cu3  1  0.75000000  0.25000000  -0.00000000  1
  As  As4  1  0.75000000  0.75000000  0.74646057  1
  As  As5  1  0.25000000  0.25000000  0.25353943  1
