# generated using pymatgen
data_Ca(NiAs)2
_symmetry_space_group_name_H-M   'P 1'
_cell_length_a   4.05688716
_cell_length_b   4.05688731
_cell_length_c   5.74117435
_cell_angle_alpha   110.69022709
_cell_angle_beta   110.69022273
_cell_angle_gamma   89.99999845
_symmetry_Int_Tables_number   1
_chemical_formula_structural   Ca(NiAs)2
_chemical_formula_sum   'Ca1 Ni2 As2'
_cell_volume   81.84924872
_cell_formula_units_Z   1
loop_
 _symmetry_equiv_pos_site_id
 _symmetry_equiv_pos_as_xyz
  1  'x, y, z'
loop_
 _atom_site_type_symbol
 _atom_site_label
 _atom_site_symmetry_multiplicity
 _atom_site_fract_x
 _atom_site_fract_y
 _atom_site_fract_z
 _atom_site_occupancy
  Ca  Ca0  1  0.00000000  0.00000000  0.00000000  1
  Ni  Ni1  1  0.25000000  0.75000000  0.50000000  1
  Ni  Ni2  1  0.75000000  0.25000000  0.50000000  1
  As  As3  1  0.36780129  0.36780129  0.73560359  1
  As  As4  1  0.63219871  0.63219871  0.26439641  1
