# generated using pymatgen
data_YCoC2
_symmetry_space_group_name_H-M   'P 1'
_cell_length_a   3.57475750
_cell_length_b   3.72887675
_cell_length_c   3.72887599
_cell_angle_alpha   106.20159237
_cell_angle_beta   90.00000000
_cell_angle_gamma   90.00000000
_symmetry_Int_Tables_number   1
_chemical_formula_structural   YCoC2
_chemical_formula_sum   'Y1 Co1 C2'
_cell_volume   47.73128449
_cell_formula_units_Z   1
loop_
 _symmetry_equiv_pos_site_id
 _symmetry_equiv_pos_as_xyz
  1  'x, y, z'
loop_
 _atom_site_type_symbol
 _atom_site_label
 _atom_site_symmetry_multiplicity
 _atom_site_fract_x
 _atom_site_fract_y
 _atom_site_fract_z
 _atom_site_occupancy
  Y  Y0  1  -0.00000000  0.99770372  0.00229628  1
  Co  Co1  1  0.50000000  0.61349426  0.38650574  1
  C  C2  1  0.50000000  0.15064837  0.54184735  1
  C  C3  1  0.50000000  0.45815265  0.84935163  1
