# generated using pymatgen
data_ZrNbP
_symmetry_space_group_name_H-M   'P 1'
_cell_length_a   3.58361505
_cell_length_b   6.90515025
_cell_length_c   8.33571449
_cell_angle_alpha   90.00000000
_cell_angle_beta   90.00000000
_cell_angle_gamma   90.00000000
_symmetry_Int_Tables_number   1
_chemical_formula_structural   ZrNbP
_chemical_formula_sum   'Zr4 Nb4 P4'
_cell_volume   206.27059233
_cell_formula_units_Z   4
loop_
 _symmetry_equiv_pos_site_id
 _symmetry_equiv_pos_as_xyz
  1  'x, y, z'
loop_
 _atom_site_type_symbol
 _atom_site_label
 _atom_site_symmetry_multiplicity
 _atom_site_fract_x
 _atom_site_fract_y
 _atom_site_fract_z
 _atom_site_occupancy
  Zr  Zr0  1  0.25000000  0.03604799  0.33108599  1
  Zr  Zr1  1  0.75000000  0.46395201  0.83108599  1
  Zr  Zr2  1  0.25000000  0.53604799  0.16891401  1
  Zr  Zr3  1  0.75000000  0.96395201  0.66891401  1
  Nb  Nb4  1  0.25000000  0.63892809  0.55952420  1
  Nb  Nb5  1  0.75000000  0.36107191  0.44047580  1
  Nb  Nb6  1  0.25000000  0.13892809  0.94047580  1
  Nb  Nb7  1  0.75000000  0.86107191  0.05952420  1
  P  P8  1  0.75000000  0.24025550  0.14230502  1
  P  P9  1  0.25000000  0.25974450  0.64230502  1
  P  P10  1  0.75000000  0.74025550  0.35769498  1
  P  P11  1  0.25000000  0.75974450  0.85769498  1
