# generated using pymatgen
data_Y(Al2Fe)4
_symmetry_space_group_name_H-M   'P 1'
_cell_length_a   4.99201851
_cell_length_b   6.64325657
_cell_length_c   6.64320302
_cell_angle_alpha   81.89572511
_cell_angle_beta   67.96692924
_cell_angle_gamma   67.96669508
_symmetry_Int_Tables_number   1
_chemical_formula_structural   Y(Al2Fe)4
_chemical_formula_sum   'Y1 Al8 Fe4'
_cell_volume   189.30539821
_cell_formula_units_Z   1
loop_
 _symmetry_equiv_pos_site_id
 _symmetry_equiv_pos_as_xyz
  1  'x, y, z'
loop_
 _atom_site_type_symbol
 _atom_site_label
 _atom_site_symmetry_multiplicity
 _atom_site_fract_x
 _atom_site_fract_y
 _atom_site_fract_z
 _atom_site_occupancy
  Y  Y0  1  0.00000000  -0.00000000  0.00000000  1
  Al  Al1  1  0.34173654  0.65808822  0.65807047  1
  Al  Al2  1  0.00001095  0.34186076  0.65811982  1
  Al  Al3  1  -0.00001095  0.65813924  0.34188018  1
  Al  Al4  1  0.65826346  0.34191178  0.34192953  1
  Al  Al5  1  0.27787634  0.22232151  0.22236150  1
  Al  Al6  1  0.49997762  0.77778771  0.22225395  1
  Al  Al7  1  0.50002238  0.22221229  0.77774605  1
  Al  Al8  1  0.72212366  0.77767849  0.77763850  1
  Fe  Fe9  1  0.50000000  -0.00000000  0.50000000  1
  Fe  Fe10  1  0.00000000  0.50000000  0.00000000  1
  Fe  Fe11  1  0.50000000  0.50000000  0.00000000  1
  Fe  Fe12  1  0.00000000  -0.00000000  0.50000000  1
