# generated using pymatgen
data_CrNiAs
_symmetry_space_group_name_H-M   'P 1'
_cell_length_a   6.20529595
_cell_length_b   6.20528499
_cell_length_c   3.64362671
_cell_angle_alpha   90.00000000
_cell_angle_beta   90.00000000
_cell_angle_gamma   120.00323395
_symmetry_Int_Tables_number   1
_chemical_formula_structural   CrNiAs
_chemical_formula_sum   'Cr3 Ni3 As3'
_cell_volume   121.49952679
_cell_formula_units_Z   3
loop_
 _symmetry_equiv_pos_site_id
 _symmetry_equiv_pos_as_xyz
  1  'x, y, z'
loop_
 _atom_site_type_symbol
 _atom_site_label
 _atom_site_symmetry_multiplicity
 _atom_site_fract_x
 _atom_site_fract_y
 _atom_site_fract_z
 _atom_site_occupancy
  Cr  Cr0  1  0.40687641  0.40687602  0.50000000  1
  Cr  Cr1  1  0.59329782  0.99997869  0.50000000  1
  Cr  Cr2  1  0.99997908  0.59330172  0.50000000  1
  Ni  Ni3  1  0.74633677  0.74633488  -0.00000000  1
  Ni  Ni4  1  -0.00005468  0.25364041  0.00000000  1
  Ni  Ni5  1  0.25364206  -0.00005667  -0.00000000  1
  As  As6  1  0.66665312  0.33329983  -0.00000000  1
  As  As7  1  0.33329767  0.66665197  -0.00000000  1
  As  As8  1  -0.00002824  -0.00002685  0.50000000  1
