# generated using pymatgen
data_ZnSnSb2
_symmetry_space_group_name_H-M   'P 1'
_cell_length_a   6.31235691
_cell_length_b   6.31235737
_cell_length_c   7.75612967
_cell_angle_alpha   114.01194125
_cell_angle_beta   114.01194091
_cell_angle_gamma   90.00000023
_symmetry_Int_Tables_number   1
_chemical_formula_structural   ZnSnSb2
_chemical_formula_sum   'Zn2 Sn2 Sb4'
_cell_volume   252.74528788
_cell_formula_units_Z   2
loop_
 _symmetry_equiv_pos_site_id
 _symmetry_equiv_pos_as_xyz
  1  'x, y, z'
loop_
 _atom_site_type_symbol
 _atom_site_label
 _atom_site_symmetry_multiplicity
 _atom_site_fract_x
 _atom_site_fract_y
 _atom_site_fract_z
 _atom_site_occupancy
  Zn  Zn0  1  0.25000000  0.75000000  0.50000000  1
  Zn  Zn1  1  -0.00000000  0.00000000  0.00000000  1
  Sn  Sn2  1  0.75000000  0.25000000  0.50000000  1
  Sn  Sn3  1  0.50000000  0.50000000  0.00000000  1
  Sb  Sb4  1  0.90081975  0.87500000  0.25000000  1
  Sb  Sb5  1  0.62500000  0.09918025  0.75000000  1
  Sb  Sb6  1  0.12500000  0.65081975  0.75000000  1
  Sb  Sb7  1  0.34918025  0.37500000  0.25000000  1
