# generated using pymatgen
data_Y(CoSi)2
_symmetry_space_group_name_H-M   'P 1'
_cell_length_a   3.85385538
_cell_length_b   3.85385564
_cell_length_c   5.56810116
_cell_angle_alpha   110.24686148
_cell_angle_beta   110.24686991
_cell_angle_gamma   89.99998858
_symmetry_Int_Tables_number   1
_chemical_formula_structural   Y(CoSi)2
_chemical_formula_sum   'Y1 Co2 Si2'
_cell_volume   72.11756133
_cell_formula_units_Z   1
loop_
 _symmetry_equiv_pos_site_id
 _symmetry_equiv_pos_as_xyz
  1  'x, y, z'
loop_
 _atom_site_type_symbol
 _atom_site_label
 _atom_site_symmetry_multiplicity
 _atom_site_fract_x
 _atom_site_fract_y
 _atom_site_fract_z
 _atom_site_occupancy
  Y  Y0  1  0.00000000  -0.00000000  0.00000000  1
  Co  Co1  1  0.25000000  0.75000000  0.50000000  1
  Co  Co2  1  0.75000000  0.25000000  0.50000000  1
  Si  Si3  1  0.62950325  0.62950325  0.25900751  1
  Si  Si4  1  0.37049675  0.37049675  0.74099249  1
