# generated using pymatgen
data_BRh
_symmetry_space_group_name_H-M   'P 1'
_cell_length_a   3.37707063
_cell_length_b   3.37706993
_cell_length_c   4.09568486
_cell_angle_alpha   90.00000000
_cell_angle_beta   90.00000000
_cell_angle_gamma   120.00078259
_symmetry_Int_Tables_number   1
_chemical_formula_structural   BRh
_chemical_formula_sum   'B2 Rh2'
_cell_volume   40.45143545
_cell_formula_units_Z   2
loop_
 _symmetry_equiv_pos_site_id
 _symmetry_equiv_pos_as_xyz
  1  'x, y, z'
loop_
 _atom_site_type_symbol
 _atom_site_label
 _atom_site_symmetry_multiplicity
 _atom_site_fract_x
 _atom_site_fract_y
 _atom_site_fract_z
 _atom_site_occupancy
  B  B0  1  0.50000000  0.50000000  -0.00000000  1
  B  B1  1  0.50000000  0.50000000  0.50000000  1
  Rh  Rh2  1  0.16667244  0.83332756  0.75000000  1
  Rh  Rh3  1  0.83332756  0.16667244  0.25000000  1
