# generated using pymatgen
data_ScNi5
_symmetry_space_group_name_H-M   'P 1'
_cell_length_a   4.69892459
_cell_length_b   4.69918796
_cell_length_c   3.91563614
_cell_angle_alpha   90.00000000
_cell_angle_beta   90.00000000
_cell_angle_gamma   119.99679659
_symmetry_Int_Tables_number   1
_chemical_formula_structural   ScNi5
_chemical_formula_sum   'Sc1 Ni5'
_cell_volume   74.88041975
_cell_formula_units_Z   1
loop_
 _symmetry_equiv_pos_site_id
 _symmetry_equiv_pos_as_xyz
  1  'x, y, z'
loop_
 _atom_site_type_symbol
 _atom_site_label
 _atom_site_symmetry_multiplicity
 _atom_site_fract_x
 _atom_site_fract_y
 _atom_site_fract_z
 _atom_site_occupancy
  Sc  Sc0  1  0.00000000  0.00000000  -0.00000000  1
  Ni  Ni1  1  0.50000000  0.50000000  0.50000000  1
  Ni  Ni2  1  0.66669250  0.33336085  0.00000000  1
  Ni  Ni3  1  0.00000000  0.50000000  0.50000000  1
  Ni  Ni4  1  0.33330750  0.66663915  0.00000000  1
  Ni  Ni5  1  0.50000000  0.00000000  0.50000000  1
