# generated using pymatgen
data_MnP4
_symmetry_space_group_name_H-M   'P 1'
_cell_length_a   5.08832799
_cell_length_b   5.81958100
_cell_length_c   16.29214595
_cell_angle_alpha   89.15755262
_cell_angle_beta   84.83485088
_cell_angle_gamma   64.38167539
_symmetry_Int_Tables_number   1
_chemical_formula_structural   MnP4
_chemical_formula_sum   'Mn6 P24'
_cell_volume   433.09111836
_cell_formula_units_Z   6
loop_
 _symmetry_equiv_pos_site_id
 _symmetry_equiv_pos_as_xyz
  1  'x, y, z'
loop_
 _atom_site_type_symbol
 _atom_site_label
 _atom_site_symmetry_multiplicity
 _atom_site_fract_x
 _atom_site_fract_y
 _atom_site_fract_z
 _atom_site_occupancy
  Mn  Mn0  1  0.49917507  0.18190647  0.59365839  1
  Mn  Mn1  1  0.12961103  0.87952090  0.07517213  1
  Mn  Mn2  1  0.87038997  0.12047910  0.92482787  1
  Mn  Mn3  1  0.50082493  0.81809353  0.40634161  1
  Mn  Mn4  1  0.49083104  0.54969476  0.25878348  1
  Mn  Mn5  1  0.50916896  0.45030524  0.74121652  1
  P  P6  1  0.92694129  0.24044024  0.27341101  1
  P  P7  1  0.65682906  0.75264747  0.77005230  1
  P  P8  1  0.94460829  0.52755804  0.43447318  1
  P  P9  1  0.38201408  0.86393585  0.54913420  1
  P  P10  1  0.56809361  0.56945904  0.11602909  1
  P  P11  1  0.62915037  0.49438895  0.60995579  1
  P  P12  1  0.71531637  0.82622970  0.89989658  1
  P  P13  1  0.94739539  0.14666537  0.78017900  1
  P  P14  1  0.36756301  0.14122739  0.72764160  1
  P  P15  1  0.30753451  0.80963410  0.94417594  1
  P  P16  1  0.98855374  0.57087778  0.06487885  1
  P  P17  1  0.61798592  0.13606415  0.45086580  1
  P  P18  1  0.28468363  0.17377030  0.10010342  1
  P  P19  1  0.01144626  0.42912222  0.93512115  1
  P  P20  1  0.43190639  0.43054096  0.88397091  1
  P  P21  1  0.95384816  0.87704184  0.60003317  1
  P  P22  1  0.07305871  0.75955976  0.72658899  1
  P  P23  1  0.69246549  0.19036590  0.05582406  1
  P  P24  1  0.63243699  0.85877261  0.27235840  1
  P  P25  1  0.34317094  0.24735253  0.22994770  1
  P  P26  1  0.04615184  0.12295816  0.39996683  1
  P  P27  1  0.05260461  0.85333463  0.21982100  1
  P  P28  1  0.37084963  0.50561105  0.39004421  1
  P  P29  1  0.05539171  0.47244196  0.56552682  1
