# generated using pymatgen
data_RbAlF4
_symmetry_space_group_name_H-M   'P 1'
_cell_length_a   5.09112282
_cell_length_b   5.09112282
_cell_length_c   6.28804313
_cell_angle_alpha   90.00000000
_cell_angle_beta   90.00000000
_cell_angle_gamma   90.00000000
_symmetry_Int_Tables_number   1
_chemical_formula_structural   RbAlF4
_chemical_formula_sum   'Rb2 Al2 F8'
_cell_volume   162.98313241
_cell_formula_units_Z   2
loop_
 _symmetry_equiv_pos_site_id
 _symmetry_equiv_pos_as_xyz
  1  'x, y, z'
loop_
 _atom_site_type_symbol
 _atom_site_label
 _atom_site_symmetry_multiplicity
 _atom_site_fract_x
 _atom_site_fract_y
 _atom_site_fract_z
 _atom_site_occupancy
  Rb  Rb0  1  0.50000000  -0.00000000  0.50000000  1
  Rb  Rb1  1  -0.00000000  0.50000000  0.50000000  1
  Al  Al2  1  0.50000000  0.50000000  -0.00000000  1
  Al  Al3  1  0.00000000  -0.00000000  -0.00000000  1
  F  F4  1  0.50000000  0.50000000  0.28071796  1
  F  F5  1  -0.00000000  -0.00000000  0.71928204  1
  F  F6  1  0.50000000  0.50000000  0.71928204  1
  F  F7  1  -0.00000000  -0.00000000  0.28071796  1
  F  F8  1  0.20221961  0.70221961  -0.00000000  1
  F  F9  1  0.29778039  0.20221961  -0.00000000  1
  F  F10  1  0.70221961  0.79778039  -0.00000000  1
  F  F11  1  0.79778039  0.29778039  -0.00000000  1
