# generated using pymatgen
data_VF2
_symmetry_space_group_name_H-M   'P 1'
_cell_length_a   3.25935376
_cell_length_b   4.77769833
_cell_length_c   4.77769833
_cell_angle_alpha   89.99980812
_cell_angle_beta   90.00000000
_cell_angle_gamma   90.00000000
_symmetry_Int_Tables_number   1
_chemical_formula_structural   VF2
_chemical_formula_sum   'V2 F4'
_cell_volume   74.39931701
_cell_formula_units_Z   2
loop_
 _symmetry_equiv_pos_site_id
 _symmetry_equiv_pos_as_xyz
  1  'x, y, z'
loop_
 _atom_site_type_symbol
 _atom_site_label
 _atom_site_symmetry_multiplicity
 _atom_site_fract_x
 _atom_site_fract_y
 _atom_site_fract_z
 _atom_site_occupancy
  V  V0  1  0.50000000  0.50000000  0.50000000  1
  V  V1  1  -0.00000000  -0.00000000  0.00000000  1
  F  F2  1  -0.00000000  0.69371560  0.69371560  1
  F  F3  1  0.50000000  0.80628623  0.19371377  1
  F  F4  1  0.00000000  0.30628440  0.30628440  1
  F  F5  1  0.50000000  0.19371377  0.80628623  1
