# generated using pymatgen
data_Ba(FeAs)2
_symmetry_space_group_name_H-M   'P 1'
_cell_length_a   3.93658974
_cell_length_b   3.93659003
_cell_length_c   6.90980065
_cell_angle_alpha   106.55022299
_cell_angle_beta   106.55022227
_cell_angle_gamma   90.00000226
_symmetry_Int_Tables_number   1
_chemical_formula_structural   Ba(FeAs)2
_chemical_formula_sum   'Ba1 Fe2 As2'
_cell_volume   98.00627215
_cell_formula_units_Z   1
loop_
 _symmetry_equiv_pos_site_id
 _symmetry_equiv_pos_as_xyz
  1  'x, y, z'
loop_
 _atom_site_type_symbol
 _atom_site_label
 _atom_site_symmetry_multiplicity
 _atom_site_fract_x
 _atom_site_fract_y
 _atom_site_fract_z
 _atom_site_occupancy
  Ba  Ba0  1  -0.00000000  -0.00000000  -0.00000000  1
  Fe  Fe1  1  0.25000000  0.75000000  0.50000000  1
  Fe  Fe2  1  0.75000000  0.25000000  0.50000000  1
  As  As3  1  0.34348958  0.34348958  0.68698015  1
  As  As4  1  0.65651042  0.65651042  0.31301985  1
