# generated using pymatgen
data_V5Si3
_symmetry_space_group_name_H-M   'P 1'
_cell_length_a   4.69927424
_cell_length_b   7.02183733
_cell_length_c   7.02183701
_cell_angle_alpha   83.57109271
_cell_angle_beta   70.45201450
_cell_angle_gamma   70.45201551
_symmetry_Int_Tables_number   1
_chemical_formula_structural   V5Si3
_chemical_formula_sum   'V10 Si6'
_cell_volume   205.76308345
_cell_formula_units_Z   2
loop_
 _symmetry_equiv_pos_site_id
 _symmetry_equiv_pos_as_xyz
  1  'x, y, z'
loop_
 _atom_site_type_symbol
 _atom_site_label
 _atom_site_symmetry_multiplicity
 _atom_site_fract_x
 _atom_site_fract_y
 _atom_site_fract_z
 _atom_site_occupancy
  V  V0  1  0.57428506  0.70087771  0.15033927  1
  V  V1  1  0.25000000  0.50001241  0.49998759  1
  V  V2  1  0.07428506  0.15033927  0.70087771  1
  V  V3  1  0.92571494  0.84966073  0.29912229  1
  V  V4  1  0.75000000  0.49998759  0.50001241  1
  V  V5  1  0.72472737  0.84969761  0.70086767  1
  V  V6  1  0.42571494  0.29912229  0.84966073  1
  V  V7  1  0.77527263  0.29913233  0.15030239  1
  V  V8  1  0.27527263  0.15030239  0.29913233  1
  V  V9  1  0.22472737  0.70086767  0.84969761  1
  Si  Si10  1  0.16607566  0.49997703  0.16791351  1
  Si  Si11  1  0.25000000  0.00001906  0.99998094  1
  Si  Si12  1  0.66607566  0.16791351  0.49997703  1
  Si  Si13  1  0.83392434  0.50002297  0.83208649  1
  Si  Si14  1  0.75000000  0.99998094  0.00001906  1
  Si  Si15  1  0.33392434  0.83208649  0.50002297  1
