# generated using pymatgen
data_Be12W
_symmetry_space_group_name_H-M   'P 1'
_cell_length_a   4.20075072
_cell_length_b   5.51028302
_cell_length_c   5.51028509
_cell_angle_alpha   81.64097295
_cell_angle_beta   67.58121627
_cell_angle_gamma   67.58122082
_symmetry_Int_Tables_number   1
_chemical_formula_structural   Be12W
_chemical_formula_sum   'Be12 W1'
_cell_volume   108.99700268
_cell_formula_units_Z   1
loop_
 _symmetry_equiv_pos_site_id
 _symmetry_equiv_pos_as_xyz
  1  'x, y, z'
loop_
 _atom_site_type_symbol
 _atom_site_label
 _atom_site_symmetry_multiplicity
 _atom_site_fract_x
 _atom_site_fract_y
 _atom_site_fract_z
 _atom_site_occupancy
  Be  Be0  1  0.00000000  0.64973569  0.35026431  1
  Be  Be1  1  -0.00000000  0.50000000  -0.00000000  1
  Be  Be2  1  0.65132144  0.35057151  0.35057151  1
  Be  Be3  1  0.50000000  0.21222882  0.78777118  1
  Be  Be4  1  -0.00000000  0.35026431  0.64973569  1
  Be  Be5  1  0.50000000  0.00000000  0.50000000  1
  Be  Be6  1  0.34867856  0.64942849  0.64942849  1
  Be  Be7  1  0.29170652  0.20855023  0.20855023  1
  Be  Be8  1  0.50000000  0.78777118  0.21222882  1
  Be  Be9  1  -0.00000000  0.00000000  0.50000000  1
  Be  Be10  1  0.70829348  0.79144977  0.79144977  1
  Be  Be11  1  0.50000000  0.50000000  -0.00000000  1
  W  W12  1  -0.00000000  0.00000000  -0.00000000  1
