# generated using pymatgen
data_TaNi3
_symmetry_space_group_name_H-M   'P 1'
_cell_length_a   3.60450472
_cell_length_b   3.60450561
_cell_length_c   4.49823467
_cell_angle_alpha   113.67016019
_cell_angle_beta   113.67015661
_cell_angle_gamma   89.89303116
_symmetry_Int_Tables_number   1
_chemical_formula_structural   TaNi3
_chemical_formula_sum   'Ta1 Ni3'
_cell_volume   48.13105055
_cell_formula_units_Z   1
loop_
 _symmetry_equiv_pos_site_id
 _symmetry_equiv_pos_as_xyz
  1  'x, y, z'
loop_
 _atom_site_type_symbol
 _atom_site_label
 _atom_site_symmetry_multiplicity
 _atom_site_fract_x
 _atom_site_fract_y
 _atom_site_fract_z
 _atom_site_occupancy
  Ta  Ta0  1  0.00000000  0.00000000  0.00000000  1
  Ni  Ni1  1  0.50000000  0.50000000  0.00000000  1
  Ni  Ni2  1  0.75001402  0.24998598  0.50000000  1
  Ni  Ni3  1  0.24998598  0.75001402  0.50000000  1
