# generated using pymatgen
data_K2WCl6
_symmetry_space_group_name_H-M   'P 1'
_cell_length_a   6.95575237
_cell_length_b   6.95574948
_cell_length_c   6.95575961
_cell_angle_alpha   59.99997935
_cell_angle_beta   59.99993809
_cell_angle_gamma   60.00008256
_symmetry_Int_Tables_number   1
_chemical_formula_structural   K2WCl6
_chemical_formula_sum   'K2 W1 Cl6'
_cell_volume   237.96747950
_cell_formula_units_Z   1
loop_
 _symmetry_equiv_pos_site_id
 _symmetry_equiv_pos_as_xyz
  1  'x, y, z'
loop_
 _atom_site_type_symbol
 _atom_site_label
 _atom_site_symmetry_multiplicity
 _atom_site_fract_x
 _atom_site_fract_y
 _atom_site_fract_z
 _atom_site_occupancy
  K  K0  1  0.75000000  0.75000000  0.75000000  1
  K  K1  1  0.25000000  0.25000000  0.25000000  1
  W  W2  1  0.00000000  -0.00000000  0.00000000  1
  Cl  Cl3  1  0.75793126  0.75793126  0.24206874  1
  Cl  Cl4  1  0.24206875  0.75793125  0.24206875  1
  Cl  Cl5  1  0.75793125  0.24206875  0.24206875  1
  Cl  Cl6  1  0.75793125  0.24206875  0.75793125  1
  Cl  Cl7  1  0.24206875  0.75793125  0.75793125  1
  Cl  Cl8  1  0.24206874  0.24206874  0.75793126  1
