# generated using pymatgen
data_Ca(CoAs)2
_symmetry_space_group_name_H-M   'P 1'
_cell_length_a   4.00872291
_cell_length_b   4.00872273
_cell_length_c   5.78854213
_cell_angle_alpha   110.25894229
_cell_angle_beta   110.25894749
_cell_angle_gamma   90.00000210
_symmetry_Int_Tables_number   1
_chemical_formula_structural   Ca(CoAs)2
_chemical_formula_sum   'Ca1 Co2 As2'
_cell_volume   81.10471153
_cell_formula_units_Z   1
loop_
 _symmetry_equiv_pos_site_id
 _symmetry_equiv_pos_as_xyz
  1  'x, y, z'
loop_
 _atom_site_type_symbol
 _atom_site_label
 _atom_site_symmetry_multiplicity
 _atom_site_fract_x
 _atom_site_fract_y
 _atom_site_fract_z
 _atom_site_occupancy
  Ca  Ca0  1  0.00000000  0.00000000  0.00000000  1
  Co  Co1  1  0.25000000  0.75000000  0.50000000  1
  Co  Co2  1  0.75000000  0.25000000  0.50000000  1
  As  As3  1  0.36348383  0.36348383  0.72696767  1
  As  As4  1  0.63651617  0.63651617  0.27303233  1
