# generated using pymatgen
data_SiO2
_symmetry_space_group_name_H-M   'P 1'
_cell_length_a   5.02315223
_cell_length_b   5.04070642
_cell_length_c   6.98076509
_cell_angle_alpha   90.00000000
_cell_angle_beta   90.00000000
_cell_angle_gamma   90.00000000
_symmetry_Int_Tables_number   1
_chemical_formula_structural   SiO2
_chemical_formula_sum   'Si4 O8'
_cell_volume   176.75461741
_cell_formula_units_Z   4
loop_
 _symmetry_equiv_pos_site_id
 _symmetry_equiv_pos_as_xyz
  1  'x, y, z'
loop_
 _atom_site_type_symbol
 _atom_site_label
 _atom_site_symmetry_multiplicity
 _atom_site_fract_x
 _atom_site_fract_y
 _atom_site_fract_z
 _atom_site_occupancy
  Si  Si0  1  0.99961090  0.04555330  0.62482679  1
  Si  Si1  1  0.49961090  0.45444670  0.12482679  1
  Si  Si2  1  0.49961090  0.95444670  0.37517321  1
  Si  Si3  1  0.99961090  0.54555330  0.87517321  1
  O  O4  1  0.44784122  0.65636557  0.30044193  1
  O  O5  1  0.94784122  0.34363443  0.69955807  1
  O  O6  1  0.44784122  0.15636557  0.19955807  1
  O  O7  1  0.30255888  0.51569709  0.94824682  1
  O  O8  1  0.80255888  0.98430291  0.44824682  1
  O  O9  1  0.94784122  0.84363443  0.80044193  1
  O  O10  1  0.30255888  0.01569709  0.55175318  1
  O  O11  1  0.80255888  0.48430291  0.05175318  1
