# generated using pymatgen
data_YSnPd2
_symmetry_space_group_name_H-M   'P 1'
_cell_length_a   4.77939629
_cell_length_b   4.77939500
_cell_length_c   4.77939551
_cell_angle_alpha   59.99999640
_cell_angle_beta   60.00000530
_cell_angle_gamma   59.99999056
_symmetry_Int_Tables_number   1
_chemical_formula_structural   YSnPd2
_chemical_formula_sum   'Y1 Sn1 Pd2'
_cell_volume   77.19762062
_cell_formula_units_Z   1
loop_
 _symmetry_equiv_pos_site_id
 _symmetry_equiv_pos_as_xyz
  1  'x, y, z'
loop_
 _atom_site_type_symbol
 _atom_site_label
 _atom_site_symmetry_multiplicity
 _atom_site_fract_x
 _atom_site_fract_y
 _atom_site_fract_z
 _atom_site_occupancy
  Y  Y0  1  0.50000000  0.50000000  0.50000000  1
  Sn  Sn1  1  0.00000000  0.00000000  -0.00000000  1
  Pd  Pd2  1  0.75000000  0.75000000  0.75000000  1
  Pd  Pd3  1  0.25000000  0.25000000  0.25000000  1
