# generated using pymatgen
data_NiPS
_symmetry_space_group_name_H-M   'P 1'
_cell_length_a   5.52880283
_cell_length_b   5.52879842
_cell_length_c   5.52878933
_cell_angle_alpha   89.99824656
_cell_angle_beta   89.99831040
_cell_angle_gamma   90.00075453
_symmetry_Int_Tables_number   1
_chemical_formula_structural   NiPS
_chemical_formula_sum   'Ni4 P4 S4'
_cell_volume   169.00202162
_cell_formula_units_Z   4
loop_
 _symmetry_equiv_pos_site_id
 _symmetry_equiv_pos_as_xyz
  1  'x, y, z'
loop_
 _atom_site_type_symbol
 _atom_site_label
 _atom_site_symmetry_multiplicity
 _atom_site_fract_x
 _atom_site_fract_y
 _atom_site_fract_z
 _atom_site_occupancy
  Ni  Ni0  1  0.00624252  0.00624450  0.00624623  1
  Ni  Ni1  1  0.49375320  0.99375700  0.50624603  1
  Ni  Ni2  1  0.50624183  0.49374965  0.99375655  1
  Ni  Ni3  1  0.99375197  0.50624262  0.49375687  1
  P  P4  1  0.61109225  0.61109855  0.61108927  1
  P  P5  1  0.88891022  0.38890742  0.11109249  1
  P  P6  1  0.11110009  0.88891185  0.38890816  1
  P  P7  1  0.38891158  0.11109114  0.88890014  1
  S  S8  1  0.38886674  0.38885474  0.38886889  1
  S  S9  1  0.11115047  0.61114476  0.88884873  1
  S  S10  1  0.88884767  0.11113746  0.61113285  1
  S  S11  1  0.61113246  0.88886031  0.11115179  1
