# generated using pymatgen
data_Tl2Pt
_symmetry_space_group_name_H-M   'P 1'
_cell_length_a   5.65181485
_cell_length_b   5.65849696
_cell_length_c   5.65849813
_cell_angle_alpha   75.55742869
_cell_angle_beta   60.03906257
_cell_angle_gamma   60.03908911
_symmetry_Int_Tables_number   1
_chemical_formula_structural   Tl2Pt
_chemical_formula_sum   'Tl4 Pt2'
_cell_volume   135.82921619
_cell_formula_units_Z   2
loop_
 _symmetry_equiv_pos_site_id
 _symmetry_equiv_pos_as_xyz
  1  'x, y, z'
loop_
 _atom_site_type_symbol
 _atom_site_label
 _atom_site_symmetry_multiplicity
 _atom_site_fract_x
 _atom_site_fract_y
 _atom_site_fract_z
 _atom_site_occupancy
  Tl  Tl0  1  0.65976461  0.18046777  0.50000000  1
  Tl  Tl1  1  0.84023539  0.50000000  0.81953223  1
  Tl  Tl2  1  0.34023539  0.81953223  0.50000000  1
  Tl  Tl3  1  0.15976461  0.50000000  0.18046777  1
  Pt  Pt4  1  0.25000000  -0.00000000  0.00000000  1
  Pt  Pt5  1  0.75000000  -0.00000000  0.00000000  1
