# generated using pymatgen
data_TiSe
_symmetry_space_group_name_H-M   'P 1'
_cell_length_a   3.49263977
_cell_length_b   6.24232284
_cell_length_c   6.45402690
_cell_angle_alpha   90.00000000
_cell_angle_beta   90.00000000
_cell_angle_gamma   90.00000000
_symmetry_Int_Tables_number   1
_chemical_formula_structural   TiSe
_chemical_formula_sum   'Ti4 Se4'
_cell_volume   140.71188852
_cell_formula_units_Z   4
loop_
 _symmetry_equiv_pos_site_id
 _symmetry_equiv_pos_as_xyz
  1  'x, y, z'
loop_
 _atom_site_type_symbol
 _atom_site_label
 _atom_site_symmetry_multiplicity
 _atom_site_fract_x
 _atom_site_fract_y
 _atom_site_fract_z
 _atom_site_occupancy
  Ti  Ti0  1  0.25000000  0.69205023  0.50599802  1
  Ti  Ti1  1  0.25000000  0.80794977  0.00599802  1
  Ti  Ti2  1  0.75000000  0.30794977  0.49400198  1
  Ti  Ti3  1  0.75000000  0.19205023  0.99400198  1
  Se  Se4  1  0.75000000  0.91714446  0.28403287  1
  Se  Se5  1  0.25000000  0.08285554  0.71596713  1
  Se  Se6  1  0.25000000  0.41714446  0.21596713  1
  Se  Se7  1  0.75000000  0.58285554  0.78403287  1
