# generated using pymatgen
data_ScNiSn
_symmetry_space_group_name_H-M   'P 1'
_cell_length_a   4.31130236
_cell_length_b   6.66237812
_cell_length_c   7.39329728
_cell_angle_alpha   90.00000000
_cell_angle_beta   90.00000000
_cell_angle_gamma   90.00000000
_symmetry_Int_Tables_number   1
_chemical_formula_structural   ScNiSn
_chemical_formula_sum   'Sc4 Ni4 Sn4'
_cell_volume   212.36157043
_cell_formula_units_Z   4
loop_
 _symmetry_equiv_pos_site_id
 _symmetry_equiv_pos_as_xyz
  1  'x, y, z'
loop_
 _atom_site_type_symbol
 _atom_site_label
 _atom_site_symmetry_multiplicity
 _atom_site_fract_x
 _atom_site_fract_y
 _atom_site_fract_z
 _atom_site_occupancy
  Sc  Sc0  1  0.75000000  0.98796972  0.29522210  1
  Sc  Sc1  1  0.25000000  0.01203028  0.70477790  1
  Sc  Sc2  1  0.75000000  0.48796972  0.20477790  1
  Sc  Sc3  1  0.25000000  0.51203028  0.79522210  1
  Ni  Ni4  1  0.75000000  0.71020166  0.58067848  1
  Ni  Ni5  1  0.25000000  0.28979834  0.41932152  1
  Ni  Ni6  1  0.75000000  0.21020166  0.91932152  1
  Ni  Ni7  1  0.25000000  0.78979834  0.08067848  1
  Sn  Sn8  1  0.75000000  0.80575201  0.91073353  1
  Sn  Sn9  1  0.25000000  0.19424799  0.08926647  1
  Sn  Sn10  1  0.75000000  0.30575201  0.58926647  1
  Sn  Sn11  1  0.25000000  0.69424799  0.41073353  1
