# generated using pymatgen
data_Hf2NiP
_symmetry_space_group_name_H-M   'P 1'
_cell_length_a   3.56648881
_cell_length_b   5.14785014
_cell_length_c   7.47480438
_cell_angle_alpha   111.13533076
_cell_angle_beta   90.00000000
_cell_angle_gamma   90.00000000
_symmetry_Int_Tables_number   1
_chemical_formula_structural   Hf2NiP
_chemical_formula_sum   'Hf4 Ni2 P2'
_cell_volume   128.00389231
_cell_formula_units_Z   2
loop_
 _symmetry_equiv_pos_site_id
 _symmetry_equiv_pos_as_xyz
  1  'x, y, z'
loop_
 _atom_site_type_symbol
 _atom_site_label
 _atom_site_symmetry_multiplicity
 _atom_site_fract_x
 _atom_site_fract_y
 _atom_site_fract_z
 _atom_site_occupancy
  Hf  Hf0  1  0.75000000  0.20702822  0.42860227  1
  Hf  Hf1  1  0.25000000  0.79297178  0.57139773  1
  Hf  Hf2  1  0.25000000  0.78861438  0.07454459  1
  Hf  Hf3  1  0.75000000  0.21138562  0.92545541  1
  Ni  Ni4  1  0.75000000  0.64737997  0.29274687  1
  Ni  Ni5  1  0.25000000  0.35262003  0.70725313  1
  P  P6  1  0.25000000  0.34953439  0.20951835  1
  P  P7  1  0.75000000  0.65046561  0.79048165  1
