# generated using pymatgen
data_H2O
_symmetry_space_group_name_H-M   'P 1'
_cell_length_a   4.34051676
_cell_length_b   4.34051676
_cell_length_c   7.06770668
_cell_angle_alpha   90.00000000
_cell_angle_beta   90.00000000
_cell_angle_gamma   59.78805546
_symmetry_Int_Tables_number   1
_chemical_formula_structural   H2O
_chemical_formula_sum   'H8 O4'
_cell_volume   115.06958218
_cell_formula_units_Z   4
loop_
 _symmetry_equiv_pos_site_id
 _symmetry_equiv_pos_as_xyz
  1  'x, y, z'
loop_
 _atom_site_type_symbol
 _atom_site_label
 _atom_site_symmetry_multiplicity
 _atom_site_fract_x
 _atom_site_fract_y
 _atom_site_fract_z
 _atom_site_occupancy
  H  H0  1  0.33603074  0.33603074  0.70070179  1
  H  H1  1  0.66396926  0.66396926  0.20070179  1
  H  H2  1  0.46046973  0.46046973  0.51645832  1
  H  H3  1  0.53953027  0.53953027  0.01645832  1
  H  H4  1  0.91711890  0.54712861  0.48291244  1
  H  H5  1  0.54712861  0.91711890  0.48291244  1
  H  H6  1  0.08288110  0.45287139  0.98291244  1
  H  H7  1  0.45287139  0.08288110  0.98291244  1
  O  O8  1  0.33466271  0.33466271  0.55981199  1
  O  O9  1  0.66533729  0.66533729  0.05981199  1
  O  O10  1  0.66751863  0.66751863  0.43520003  1
  O  O11  1  0.33248137  0.33248137  0.93520003  1
