# generated using pymatgen
data_GaCuPt2
_symmetry_space_group_name_H-M   'P 1'
_cell_length_a   3.97300201
_cell_length_b   3.97439711
_cell_length_c   3.54307443
_cell_angle_alpha   90.00009212
_cell_angle_beta   90.00003061
_cell_angle_gamma   90.00000000
_symmetry_Int_Tables_number   1
_chemical_formula_structural   GaCuPt2
_chemical_formula_sum   'Ga1 Cu1 Pt2'
_cell_volume   55.94616462
_cell_formula_units_Z   1
loop_
 _symmetry_equiv_pos_site_id
 _symmetry_equiv_pos_as_xyz
  1  'x, y, z'
loop_
 _atom_site_type_symbol
 _atom_site_label
 _atom_site_symmetry_multiplicity
 _atom_site_fract_x
 _atom_site_fract_y
 _atom_site_fract_z
 _atom_site_occupancy
  Ga  Ga0  1  0.50000000  0.50000200  0.00000000  1
  Cu  Cu1  1  0.00000000  0.99999900  0.00000100  1
  Pt  Pt2  1  0.50000000  0.99999800  0.49999900  1
  Pt  Pt3  1  -0.00000000  0.50000200  0.50000000  1
