# generated using pymatgen
data_Ca3Ag8
_symmetry_space_group_name_H-M   'P 1'
_cell_length_a   8.59924906
_cell_length_b   8.59924941
_cell_length_c   8.59924914
_cell_angle_alpha   109.47122001
_cell_angle_beta   109.47122081
_cell_angle_gamma   109.47121965
_symmetry_Int_Tables_number   1
_chemical_formula_structural   Ca3Ag8
_chemical_formula_sum   'Ca6 Ag16'
_cell_volume   489.50791840
_cell_formula_units_Z   2
loop_
 _symmetry_equiv_pos_site_id
 _symmetry_equiv_pos_as_xyz
  1  'x, y, z'
loop_
 _atom_site_type_symbol
 _atom_site_label
 _atom_site_symmetry_multiplicity
 _atom_site_fract_x
 _atom_site_fract_y
 _atom_site_fract_z
 _atom_site_occupancy
  Ca  Ca0  1  -0.00000000  0.28281918  0.28281918  1
  Ca  Ca1  1  0.71718082  0.00000000  0.71718082  1
  Ca  Ca2  1  0.28281918  0.28281918  -0.00000000  1
  Ca  Ca3  1  0.71718082  0.71718082  0.00000000  1
  Ca  Ca4  1  0.00000000  0.71718082  0.71718082  1
  Ca  Ca5  1  0.28281918  0.00000000  0.28281918  1
  Ag  Ag6  1  0.66079244  0.00000000  0.33920756  1
  Ag  Ag7  1  0.66079244  0.32158489  0.66079244  1
  Ag  Ag8  1  -0.00000000  0.66079244  0.33920756  1
  Ag  Ag9  1  0.67841511  0.33920756  0.33920756  1
  Ag  Ag10  1  0.33920756  0.33920756  0.67841511  1
  Ag  Ag11  1  0.00000000  0.33920756  0.66079244  1
  Ag  Ag12  1  0.33920756  0.66079244  -0.00000000  1
  Ag  Ag13  1  0.66079244  0.66079244  0.32158489  1
  Ag  Ag14  1  0.32158489  0.66079244  0.66079244  1
  Ag  Ag15  1  0.50000000  0.00000000  0.00000000  1
  Ag  Ag16  1  0.66079244  0.33920756  0.00000000  1
  Ag  Ag17  1  0.33920756  0.00000000  0.66079244  1
  Ag  Ag18  1  0.33920756  0.67841511  0.33920756  1
  Ag  Ag19  1  0.50000000  0.50000000  0.50000000  1
  Ag  Ag20  1  0.00000000  0.50000000  0.00000000  1
  Ag  Ag21  1  0.00000000  0.00000000  0.50000000  1
