# generated using pymatgen
data_Fe11Co5
_symmetry_space_group_name_H-M   'P 1'
_cell_length_a   5.68315569
_cell_length_b   5.68315465
_cell_length_c   5.65602088
_cell_angle_alpha   90.00000000
_cell_angle_beta   90.00000000
_cell_angle_gamma   90.00000000
_symmetry_Int_Tables_number   1
_chemical_formula_structural   Fe11Co5
_chemical_formula_sum   'Fe11 Co5'
_cell_volume   182.67959158
_cell_formula_units_Z   1
loop_
 _symmetry_equiv_pos_site_id
 _symmetry_equiv_pos_as_xyz
  1  'x, y, z'
loop_
 _atom_site_type_symbol
 _atom_site_label
 _atom_site_symmetry_multiplicity
 _atom_site_fract_x
 _atom_site_fract_y
 _atom_site_fract_z
 _atom_site_occupancy
  Fe  Fe0  1  0.24861174  0.24861074  0.24912157  1
  Fe  Fe1  1  0.24861174  0.75138926  0.75087843  1
  Fe  Fe2  1  0.75138926  0.24861074  0.24912257  1
  Fe  Fe3  1  0.75138826  0.24861074  0.75087743  1
  Fe  Fe4  1  0.50000000  0.50000000  -0.00000000  1
  Fe  Fe5  1  0.24861174  0.75138926  0.24912357  1
  Fe  Fe6  1  0.24861174  0.24861074  0.75087643  1
  Fe  Fe7  1  0.75138926  0.75138926  0.24912157  1
  Fe  Fe8  1  0.50000000  0.50000000  0.50000000  1
  Fe  Fe9  1  -0.00000000  -0.00000000  0.50000000  1
  Fe  Fe10  1  0.75138826  0.75138926  0.75087743  1
  Co  Co11  1  0.50000000  -0.00000000  -0.00000000  1
  Co  Co12  1  -0.00000000  0.50000000  0.50000000  1
  Co  Co13  1  -0.00000000  0.50000000  -0.00000000  1
  Co  Co14  1  -0.00000000  -0.00000000  -0.00000000  1
  Co  Co15  1  0.50000000  -0.00000000  0.50000000  1
