# generated using pymatgen
data_Ni2H
_symmetry_space_group_name_H-M   'P 1'
_cell_length_a   2.51556109
_cell_length_b   2.51556079
_cell_length_c   4.18370750
_cell_angle_alpha   90.01269625
_cell_angle_beta   89.98729496
_cell_angle_gamma   119.96588187
_symmetry_Int_Tables_number   1
_chemical_formula_structural   Ni2H
_chemical_formula_sum   'Ni2 H1'
_cell_volume   22.93563787
_cell_formula_units_Z   1
loop_
 _symmetry_equiv_pos_site_id
 _symmetry_equiv_pos_as_xyz
  1  'x, y, z'
loop_
 _atom_site_type_symbol
 _atom_site_label
 _atom_site_symmetry_multiplicity
 _atom_site_fract_x
 _atom_site_fract_y
 _atom_site_fract_z
 _atom_site_occupancy
  Ni  Ni0  1  0.33316516  0.66683484  0.28869546  1
  Ni  Ni1  1  0.66672534  0.33327466  0.77056809  1
  H  H2  1  0.00010950  0.99989050  0.02473545  1
