# generated using pymatgen
data_Mn11Pd21
_symmetry_space_group_name_H-M   'P 1'
_cell_length_a   8.02752623
_cell_length_b   8.02750491
_cell_length_c   7.43249437
_cell_angle_alpha   89.99986941
_cell_angle_beta   89.99996193
_cell_angle_gamma   90.03055053
_symmetry_Int_Tables_number   1
_chemical_formula_structural   Mn11Pd21
_chemical_formula_sum   'Mn11 Pd21'
_cell_volume   478.95734733
_cell_formula_units_Z   1
loop_
 _symmetry_equiv_pos_site_id
 _symmetry_equiv_pos_as_xyz
  1  'x, y, z'
loop_
 _atom_site_type_symbol
 _atom_site_label
 _atom_site_symmetry_multiplicity
 _atom_site_fract_x
 _atom_site_fract_y
 _atom_site_fract_z
 _atom_site_occupancy
  Mn  Mn0  1  0.99999989  0.49999849  0.50000000  1
  Mn  Mn1  1  0.23970691  0.23970111  0.99999900  1
  Mn  Mn2  1  0.25339101  0.25339871  0.49999900  1
  Mn  Mn3  1  0.23972646  0.76027109  0.99999900  1
  Mn  Mn4  1  0.25341973  0.74657178  0.50000000  1
  Mn  Mn5  1  0.49999952  -0.00000227  0.49999900  1
  Mn  Mn6  1  0.49999962  0.49999467  -0.00000000  1
  Mn  Mn7  1  0.76026588  0.23972726  0.00000100  1
  Mn  Mn8  1  0.74658189  0.25343309  0.49999900  1
  Mn  Mn9  1  0.76029361  0.76029792  0.00000100  1
  Mn  Mn10  1  0.74660067  0.74659896  0.50000000  1
  Pd  Pd11  1  -0.00000077  0.99999535  -0.00000000  1
  Pd  Pd12  1  0.00000640  0.00000482  0.50000000  1
  Pd  Pd13  1  0.99999289  0.25291589  0.25941489  1
  Pd  Pd14  1  0.00000331  0.50000429  0.00000000  1
  Pd  Pd15  1  0.99999189  0.25291489  0.74058511  1
  Pd  Pd16  1  0.00000673  0.74708332  0.25942106  1
  Pd  Pd17  1  0.00000773  0.74708432  0.74057894  1
  Pd  Pd18  1  0.25291207  0.00000736  0.25941085  1
  Pd  Pd19  1  0.25291207  0.00000636  0.74058915  1
  Pd  Pd20  1  0.25068091  0.50000882  0.24557221  1
  Pd  Pd21  1  0.25067991  0.50000982  0.75442779  1
  Pd  Pd22  1  0.50000382  0.00000324  0.00000000  1
  Pd  Pd23  1  0.50001797  0.25069414  0.24557193  1
  Pd  Pd24  1  0.50001797  0.25069414  0.75442907  1
  Pd  Pd25  1  0.50000141  0.50000273  0.50000000  1
  Pd  Pd26  1  0.49998972  0.74931396  0.24556755  1
  Pd  Pd27  1  0.49998872  0.74931396  0.75443345  1
  Pd  Pd28  1  0.74708640  -0.00001253  0.25941918  1
  Pd  Pd29  1  0.74708740  -0.00001253  0.74058082  1
  Pd  Pd30  1  0.74931564  0.49998641  0.24556622  1
  Pd  Pd31  1  0.74931564  0.49998741  0.75443478  1
