# generated using pymatgen
data_MnNbSi
_symmetry_space_group_name_H-M   'P 1'
_cell_length_a   6.48617425
_cell_length_b   6.48625552
_cell_length_c   3.63589391
_cell_angle_alpha   90.00000000
_cell_angle_beta   90.00000000
_cell_angle_gamma   119.99985309
_symmetry_Int_Tables_number   1
_chemical_formula_structural   MnNbSi
_chemical_formula_sum   'Mn3 Nb3 Si3'
_cell_volume   132.47232012
_cell_formula_units_Z   3
loop_
 _symmetry_equiv_pos_site_id
 _symmetry_equiv_pos_as_xyz
  1  'x, y, z'
loop_
 _atom_site_type_symbol
 _atom_site_label
 _atom_site_symmetry_multiplicity
 _atom_site_fract_x
 _atom_site_fract_y
 _atom_site_fract_z
 _atom_site_occupancy
  Mn  Mn0  1  0.24658944  0.00000036  0.00000000  1
  Mn  Mn1  1  0.75340994  0.75341090  0.00000000  1
  Mn  Mn2  1  -0.00000049  0.24659315  0.00000000  1
  Nb  Nb3  1  -0.00000394  0.58475515  0.50000000  1
  Nb  Nb4  1  0.41524673  0.41524782  0.50000000  1
  Nb  Nb5  1  0.58475444  0.00000140  0.50000000  1
  Si  Si6  1  0.00000082  -0.00000113  0.50000000  1
  Si  Si7  1  0.66666888  0.33333181  -0.00000000  1
  Si  Si8  1  0.33333319  0.66666154  -0.00000000  1
