# generated using pymatgen
data_Ti2Cu
_symmetry_space_group_name_H-M   'P 1'
_cell_length_a   2.92855190
_cell_length_b   2.92855113
_cell_length_c   5.71239886
_cell_angle_alpha   104.85257209
_cell_angle_beta   104.85257058
_cell_angle_gamma   90.00001967
_symmetry_Int_Tables_number   1
_chemical_formula_structural   Ti2Cu
_chemical_formula_sum   'Ti2 Cu1'
_cell_volume   45.65947585
_cell_formula_units_Z   1
loop_
 _symmetry_equiv_pos_site_id
 _symmetry_equiv_pos_as_xyz
  1  'x, y, z'
loop_
 _atom_site_type_symbol
 _atom_site_label
 _atom_site_symmetry_multiplicity
 _atom_site_fract_x
 _atom_site_fract_y
 _atom_site_fract_z
 _atom_site_occupancy
  Ti  Ti0  1  0.66135630  0.66135630  0.32271259  1
  Ti  Ti1  1  0.33864370  0.33864370  0.67728741  1
  Cu  Cu2  1  0.00000000  0.00000000  0.00000000  1
