# generated using pymatgen
data_Nb2CrSe4
_symmetry_space_group_name_H-M   'P 1'
_cell_length_a   3.53510600
_cell_length_b   6.38954207
_cell_length_c   7.08250136
_cell_angle_alpha   114.84815784
_cell_angle_beta   104.45184403
_cell_angle_gamma   90.00000000
_symmetry_Int_Tables_number   1
_chemical_formula_structural   Nb2CrSe4
_chemical_formula_sum   'Nb2 Cr1 Se4'
_cell_volume   139.56933439
_cell_formula_units_Z   1
loop_
 _symmetry_equiv_pos_site_id
 _symmetry_equiv_pos_as_xyz
  1  'x, y, z'
loop_
 _atom_site_type_symbol
 _atom_site_label
 _atom_site_symmetry_multiplicity
 _atom_site_fract_x
 _atom_site_fract_y
 _atom_site_fract_z
 _atom_site_occupancy
  Nb  Nb0  1  0.25669100  0.32103900  0.51338200  1
  Nb  Nb1  1  0.74330900  0.67896100  0.48661800  1
  Cr  Cr2  1  0.00000000  0.00000000  0.00000000  1
  Se  Se3  1  0.89969000  0.55449000  0.79938000  1
  Se  Se4  1  0.36429000  0.02363600  0.72858000  1
  Se  Se5  1  0.10031000  0.44551000  0.20062000  1
  Se  Se6  1  0.63571000  0.97636400  0.27142000  1
