# generated using pymatgen
data_V3Ni
_symmetry_space_group_name_H-M   'P 1'
_cell_length_a   4.63970220
_cell_length_b   4.63970729
_cell_length_c   4.63970729
_cell_angle_alpha   90.00000000
_cell_angle_beta   90.00000000
_cell_angle_gamma   90.00000000
_symmetry_Int_Tables_number   1
_chemical_formula_structural   V3Ni
_chemical_formula_sum   'V6 Ni2'
_cell_volume   99.87832983
_cell_formula_units_Z   2
loop_
 _symmetry_equiv_pos_site_id
 _symmetry_equiv_pos_as_xyz
  1  'x, y, z'
loop_
 _atom_site_type_symbol
 _atom_site_label
 _atom_site_symmetry_multiplicity
 _atom_site_fract_x
 _atom_site_fract_y
 _atom_site_fract_z
 _atom_site_occupancy
  V  V0  1  0.50000000  0.25000200  -0.00000000  1
  V  V1  1  0.50000000  0.74999800  -0.00000000  1
  V  V2  1  0.25000000  0.00000000  0.50000000  1
  V  V3  1  0.75000000  0.00000000  0.50000000  1
  V  V4  1  0.00000000  0.50000000  0.24999800  1
  V  V5  1  0.00000000  0.50000000  0.75000200  1
  Ni  Ni6  1  0.50000000  0.50000000  0.50000000  1
  Ni  Ni7  1  0.00000000  0.00000000  -0.00000000  1
