# generated using pymatgen
data_Al2O3
_symmetry_space_group_name_H-M   'P 1'
_cell_length_a   4.79760029
_cell_length_b   5.25243661
_cell_length_c   4.79759977
_cell_angle_alpha   117.17451555
_cell_angle_beta   60.00000814
_cell_angle_gamma   117.17451660
_symmetry_Int_Tables_number   1
_chemical_formula_structural   Al2O3
_chemical_formula_sum   'Al4 O6'
_cell_volume   88.95641731
_cell_formula_units_Z   2
loop_
 _symmetry_equiv_pos_site_id
 _symmetry_equiv_pos_as_xyz
  1  'x, y, z'
loop_
 _atom_site_type_symbol
 _atom_site_label
 _atom_site_symmetry_multiplicity
 _atom_site_fract_x
 _atom_site_fract_y
 _atom_site_fract_z
 _atom_site_occupancy
  Al  Al0  1  -0.00000000  0.00000000  0.00000000  1
  Al  Al1  1  0.50000000  0.50000000  0.50000000  1
  Al  Al2  1  0.30680151  0.92040554  0.30680151  1
  Al  Al3  1  0.69319849  0.07959446  0.69319849  1
  O  O4  1  0.27963853  0.77562830  0.60396229  1
  O  O5  1  0.39603771  0.22437170  0.10797352  1
  O  O6  1  0.10797352  0.22437170  0.72036147  1
  O  O7  1  0.89202648  0.77562830  0.27963853  1
  O  O8  1  0.60396229  0.77562830  0.89202648  1
  O  O9  1  0.72036147  0.22437170  0.39603771  1
