# generated using pymatgen
data_Ba(ZnAs)2
_symmetry_space_group_name_H-M   'P 1'
_cell_length_a   4.26304984
_cell_length_b   10.05250841
_cell_length_c   10.90195991
_cell_angle_alpha   90.00000000
_cell_angle_beta   90.00000000
_cell_angle_gamma   90.00000000
_symmetry_Int_Tables_number   1
_chemical_formula_structural   Ba(ZnAs)2
_chemical_formula_sum   'Ba4 Zn8 As8'
_cell_volume   467.19634428
_cell_formula_units_Z   4
loop_
 _symmetry_equiv_pos_site_id
 _symmetry_equiv_pos_as_xyz
  1  'x, y, z'
loop_
 _atom_site_type_symbol
 _atom_site_label
 _atom_site_symmetry_multiplicity
 _atom_site_fract_x
 _atom_site_fract_y
 _atom_site_fract_z
 _atom_site_occupancy
  Ba  Ba0  1  0.25000000  0.74715373  0.67308217  1
  Ba  Ba1  1  0.75000000  0.25284627  0.32691783  1
  Ba  Ba2  1  0.25000000  0.24715373  0.82691783  1
  Ba  Ba3  1  0.75000000  0.75284627  0.17308217  1
  Zn  Zn4  1  0.75000000  0.40026262  0.05035083  1
  Zn  Zn5  1  0.25000000  0.59973738  0.94964917  1
  Zn  Zn6  1  0.25000000  0.09973738  0.55035083  1
  Zn  Zn7  1  0.75000000  0.90026262  0.44964917  1
  Zn  Zn8  1  0.75000000  0.95293416  0.88241040  1
  Zn  Zn9  1  0.25000000  0.04706584  0.11758960  1
  Zn  Zn10  1  0.75000000  0.45293416  0.61758960  1
  Zn  Zn11  1  0.25000000  0.54706584  0.38241040  1
  As  As12  1  0.75000000  0.64862653  0.45915260  1
  As  As13  1  0.25000000  0.35137447  0.54084740  1
  As  As14  1  0.25000000  0.85137347  0.95915260  1
  As  As15  1  0.75000000  0.14862653  0.04084740  1
  As  As16  1  0.75000000  0.52186944  0.84114645  1
  As  As17  1  0.25000000  0.47813056  0.15885355  1
  As  As18  1  0.75000000  0.02186944  0.65885355  1
  As  As19  1  0.25000000  0.97813056  0.34114645  1
