# generated using pymatgen
data_Sn
_symmetry_space_group_name_H-M   'P 1'
_cell_length_a   3.19860398
_cell_length_b   4.45495469
_cell_length_c   4.45495436
_cell_angle_alpha   82.59530718
_cell_angle_beta   68.96157064
_cell_angle_gamma   68.96156414
_symmetry_Int_Tables_number   1
_chemical_formula_structural   Sn
_chemical_formula_sum   Sn2
_cell_volume   55.30019012
_cell_formula_units_Z   2
loop_
 _symmetry_equiv_pos_site_id
 _symmetry_equiv_pos_as_xyz
  1  'x, y, z'
loop_
 _atom_site_type_symbol
 _atom_site_label
 _atom_site_symmetry_multiplicity
 _atom_site_fract_x
 _atom_site_fract_y
 _atom_site_fract_z
 _atom_site_occupancy
  Sn  Sn0  1  0.37500000  0.25000000  0.75000000  1
  Sn  Sn1  1  0.62500000  0.75000000  0.25000000  1
