# generated using pymatgen
data_HfZnIr2
_symmetry_space_group_name_H-M   'P 1'
_cell_length_a   4.43146870
_cell_length_b   4.43146851
_cell_length_c   4.43146806
_cell_angle_alpha   60.00006292
_cell_angle_beta   60.00006397
_cell_angle_gamma   60.00005532
_symmetry_Int_Tables_number   1
_chemical_formula_structural   HfZnIr2
_chemical_formula_sum   'Hf1 Zn1 Ir2'
_cell_volume   61.53590285
_cell_formula_units_Z   1
loop_
 _symmetry_equiv_pos_site_id
 _symmetry_equiv_pos_as_xyz
  1  'x, y, z'
loop_
 _atom_site_type_symbol
 _atom_site_label
 _atom_site_symmetry_multiplicity
 _atom_site_fract_x
 _atom_site_fract_y
 _atom_site_fract_z
 _atom_site_occupancy
  Hf  Hf0  1  0.24999980  0.24999994  0.24999985  1
  Zn  Zn1  1  0.74999994  0.74999997  0.74999993  1
  Ir  Ir2  1  -0.00000026  -0.00000020  -0.00000027  1
  Ir  Ir3  1  0.49999852  0.49999930  0.49999849  1
