# generated using pymatgen
data_ZrCoP
_symmetry_space_group_name_H-M   'P 1'
_cell_length_a   3.68277707
_cell_length_b   6.31827727
_cell_length_c   7.10707519
_cell_angle_alpha   90.00000000
_cell_angle_beta   90.00000000
_cell_angle_gamma   90.00000000
_symmetry_Int_Tables_number   1
_chemical_formula_structural   ZrCoP
_chemical_formula_sum   'Zr4 Co4 P4'
_cell_volume   165.37315846
_cell_formula_units_Z   4
loop_
 _symmetry_equiv_pos_site_id
 _symmetry_equiv_pos_as_xyz
  1  'x, y, z'
loop_
 _atom_site_type_symbol
 _atom_site_label
 _atom_site_symmetry_multiplicity
 _atom_site_fract_x
 _atom_site_fract_y
 _atom_site_fract_z
 _atom_site_occupancy
  Zr  Zr0  1  0.25000000  0.51750724  0.31574419  1
  Zr  Zr1  1  0.25000000  0.01750724  0.18425581  1
  Zr  Zr2  1  0.75000000  0.98249276  0.81574419  1
  Zr  Zr3  1  0.75000000  0.48249276  0.68425581  1
  Co  Co4  1  0.75000000  0.36294220  0.06056608  1
  Co  Co5  1  0.25000000  0.13705780  0.56056608  1
  Co  Co6  1  0.75000000  0.86294220  0.43943392  1
  Co  Co7  1  0.25000000  0.63705780  0.93943392  1
  P  P8  1  0.25000000  0.77604043  0.61126356  1
  P  P9  1  0.25000000  0.27604043  0.88873644  1
  P  P10  1  0.75000000  0.22395957  0.38873644  1
  P  P11  1  0.75000000  0.72395957  0.11126356  1
