# generated using pymatgen
data_Te4Pt3
_symmetry_space_group_name_H-M   'P 1'
_cell_length_a   4.00576263
_cell_length_b   4.00576410
_cell_length_c   12.52689232
_cell_angle_alpha   80.83569500
_cell_angle_beta   80.83569163
_cell_angle_gamma   59.95977840
_symmetry_Int_Tables_number   1
_chemical_formula_structural   Te4Pt3
_chemical_formula_sum   'Te4 Pt3'
_cell_volume   171.04101995
_cell_formula_units_Z   1
loop_
 _symmetry_equiv_pos_site_id
 _symmetry_equiv_pos_as_xyz
  1  'x, y, z'
loop_
 _atom_site_type_symbol
 _atom_site_label
 _atom_site_symmetry_multiplicity
 _atom_site_fract_x
 _atom_site_fract_y
 _atom_site_fract_z
 _atom_site_occupancy
  Te  Te0  1  0.94709314  0.94709314  0.15871067  1
  Te  Te1  1  0.05290686  0.05290686  0.84128933  1
  Te  Te2  1  0.79583057  0.79583057  0.61253765  1
  Te  Te3  1  0.20416943  0.20416943  0.38746235  1
  Pt  Pt4  1  0.64676050  0.64676050  0.06003437  1
  Pt  Pt5  1  0.50000000  0.50000000  0.50000000  1
  Pt  Pt6  1  0.35323950  0.35323950  0.93996563  1
