# generated using pymatgen
data_ScZn3
_symmetry_space_group_name_H-M   'P 1'
_cell_length_a   5.86550128
_cell_length_b   5.86550071
_cell_length_c   4.33310712
_cell_angle_alpha   90.00000000
_cell_angle_beta   90.00000000
_cell_angle_gamma   119.99999737
_symmetry_Int_Tables_number   1
_chemical_formula_structural   ScZn3
_chemical_formula_sum   'Sc2 Zn6'
_cell_volume   129.10417721
_cell_formula_units_Z   2
loop_
 _symmetry_equiv_pos_site_id
 _symmetry_equiv_pos_as_xyz
  1  'x, y, z'
loop_
 _atom_site_type_symbol
 _atom_site_label
 _atom_site_symmetry_multiplicity
 _atom_site_fract_x
 _atom_site_fract_y
 _atom_site_fract_z
 _atom_site_occupancy
  Sc  Sc0  1  0.33333300  0.66666700  0.75000200  1
  Sc  Sc1  1  0.66666800  0.33333400  0.25000000  1
  Zn  Zn2  1  0.84266905  0.68533909  0.75000200  1
  Zn  Zn3  1  0.31466091  0.15732995  0.75000200  1
  Zn  Zn4  1  0.15733195  0.31466291  0.25000000  1
  Zn  Zn5  1  0.68533909  0.84266905  0.25000000  1
  Zn  Zn6  1  0.15733195  0.84266905  0.25000000  1
  Zn  Zn7  1  0.84266805  0.15732995  0.75000200  1
