# generated using pymatgen
data_CaSi2
_symmetry_space_group_name_H-M   'P 1'
_cell_length_a   3.88441653
_cell_length_b   3.88436505
_cell_length_c   4.91772546
_cell_angle_alpha   89.99994760
_cell_angle_beta   89.99956730
_cell_angle_gamma   119.99953414
_symmetry_Int_Tables_number   1
_chemical_formula_structural   CaSi2
_chemical_formula_sum   'Ca1 Si2'
_cell_volume   64.26030482
_cell_formula_units_Z   1
loop_
 _symmetry_equiv_pos_site_id
 _symmetry_equiv_pos_as_xyz
  1  'x, y, z'
loop_
 _atom_site_type_symbol
 _atom_site_label
 _atom_site_symmetry_multiplicity
 _atom_site_fract_x
 _atom_site_fract_y
 _atom_site_fract_z
 _atom_site_occupancy
  Ca  Ca0  1  0.00000000  -0.00000000  -0.00000000  1
  Si  Si1  1  0.33333203  0.66666597  0.41562759  1
  Si  Si2  1  0.66666797  0.33333403  0.58437241  1
