# generated using pymatgen
data_VRh3
_symmetry_space_group_name_H-M   'P 1'
_cell_length_a   5.38854377
_cell_length_b   5.38854549
_cell_length_c   4.28573106
_cell_angle_alpha   90.00004162
_cell_angle_beta   89.99993259
_cell_angle_gamma   120.00012549
_symmetry_Int_Tables_number   1
_chemical_formula_structural   VRh3
_chemical_formula_sum   'V2 Rh6'
_cell_volume   107.77002043
_cell_formula_units_Z   2
loop_
 _symmetry_equiv_pos_site_id
 _symmetry_equiv_pos_as_xyz
  1  'x, y, z'
loop_
 _atom_site_type_symbol
 _atom_site_label
 _atom_site_symmetry_multiplicity
 _atom_site_fract_x
 _atom_site_fract_y
 _atom_site_fract_z
 _atom_site_occupancy
  V  V0  1  0.33333829  0.66665657  0.75000193  1
  V  V1  1  0.66665553  0.33333977  0.25000013  1
  Rh  Rh2  1  0.16722217  0.33442399  0.25000110  1
  Rh  Rh3  1  0.66557716  0.83278054  0.25000196  1
  Rh  Rh4  1  0.16721201  0.83279153  0.24999939  1
  Rh  Rh5  1  0.83276565  0.66554390  0.75000088  1
  Rh  Rh6  1  0.33445618  0.16723641  0.75000002  1
  Rh  Rh7  1  0.83277502  0.16722829  0.75000260  1
