# generated using pymatgen
data_ZrAsRu
_symmetry_space_group_name_H-M   'P 1'
_cell_length_a   6.60138623
_cell_length_b   6.60138538
_cell_length_c   3.91891128
_cell_angle_alpha   90.00000000
_cell_angle_beta   90.00000000
_cell_angle_gamma   119.99999918
_symmetry_Int_Tables_number   1
_chemical_formula_structural   ZrAsRu
_chemical_formula_sum   'Zr3 As3 Ru3'
_cell_volume   147.89936083
_cell_formula_units_Z   3
loop_
 _symmetry_equiv_pos_site_id
 _symmetry_equiv_pos_as_xyz
  1  'x, y, z'
loop_
 _atom_site_type_symbol
 _atom_site_label
 _atom_site_symmetry_multiplicity
 _atom_site_fract_x
 _atom_site_fract_y
 _atom_site_fract_z
 _atom_site_occupancy
  Zr  Zr0  1  0.41805964  0.41805964  0.50000000  1
  Zr  Zr1  1  0.58194036  0.00000000  0.50000000  1
  Zr  Zr2  1  -0.00000000  0.58194036  0.50000000  1
  As  As3  1  -0.00000000  0.00000000  0.50000000  1
  As  As4  1  0.66666700  0.33333300  0.00000000  1
  As  As5  1  0.33333300  0.66666700  -0.00000000  1
  Ru  Ru6  1  -0.00000000  0.24373390  -0.00000000  1
  Ru  Ru7  1  0.24373390  0.00000000  0.00000000  1
  Ru  Ru8  1  0.75626610  0.75626610  -0.00000000  1
