# generated using pymatgen
data_ScSiAu
_symmetry_space_group_name_H-M   'P 1'
_cell_length_a   4.22277924
_cell_length_b   4.22277889
_cell_length_c   6.89751733
_cell_angle_alpha   90.00000000
_cell_angle_beta   90.00000000
_cell_angle_gamma   119.99999491
_symmetry_Int_Tables_number   1
_chemical_formula_structural   ScSiAu
_chemical_formula_sum   'Sc2 Si2 Au2'
_cell_volume   106.51730598
_cell_formula_units_Z   2
loop_
 _symmetry_equiv_pos_site_id
 _symmetry_equiv_pos_as_xyz
  1  'x, y, z'
loop_
 _atom_site_type_symbol
 _atom_site_label
 _atom_site_symmetry_multiplicity
 _atom_site_fract_x
 _atom_site_fract_y
 _atom_site_fract_z
 _atom_site_occupancy
  Sc  Sc0  1  -0.00000000  0.00000000  -0.00000000  1
  Sc  Sc1  1  0.00000000  0.00000000  0.50000000  1
  Si  Si2  1  0.33333300  0.66666700  0.70553165  1
  Si  Si3  1  0.33333300  0.66666700  0.29446835  1
  Au  Au4  1  0.66666700  0.33333300  0.21488711  1
  Au  Au5  1  0.66666700  0.33333300  0.78511289  1
