# generated using pymatgen
data_Ca(ZnAs)2
_symmetry_space_group_name_H-M   'P 1'
_cell_length_a   4.14855242
_cell_length_b   4.14855236
_cell_length_c   7.00734228
_cell_angle_alpha   90.00000000
_cell_angle_beta   90.00000000
_cell_angle_gamma   120.00000052
_symmetry_Int_Tables_number   1
_chemical_formula_structural   Ca(ZnAs)2
_chemical_formula_sum   'Ca1 Zn2 As2'
_cell_volume   104.44246623
_cell_formula_units_Z   1
loop_
 _symmetry_equiv_pos_site_id
 _symmetry_equiv_pos_as_xyz
  1  'x, y, z'
loop_
 _atom_site_type_symbol
 _atom_site_label
 _atom_site_symmetry_multiplicity
 _atom_site_fract_x
 _atom_site_fract_y
 _atom_site_fract_z
 _atom_site_occupancy
  Ca  Ca0  1  0.00000000  -0.00000000  -0.00000000  1
  Zn  Zn1  1  0.33333300  0.66666700  0.63046650  1
  Zn  Zn2  1  0.66666700  0.33333300  0.36953350  1
  As  As3  1  0.33333300  0.66666700  0.26048876  1
  As  As4  1  0.66666700  0.33333300  0.73951124  1
